121304016
  -OEChem-03012215082D

 77 80  0     1  0  0  0  0  0999 V2000
    6.5916   -0.5056    0.0000 P   0  0  1  0  0  0  0  0  0  0  0  0
    5.5781    2.4117    0.0000 O   0  0  0  0  0  0  0  0  0  0  0  0
    3.2284    3.4954    0.0000 O   0  0  0  0  0  0  0  0  0  0  0  0
    3.2321    1.3198    0.0000 O   0  0  0  0  0  0  0  0  0  0  0  0
    6.2809    0.4449    0.0000 O   0  0  0  0  0  0  0  0  0  0  0  0
    7.5421   -0.1950    0.0000 O   0  0  0  0  0  0  0  0  0  0  0  0
    5.6410   -0.8163    0.0000 O   0  0  0  0  0  0  0  0  0  0  0  0
    5.8772   -3.8953    0.0000 O   0  0  0  0  0  0  0  0  0  0  0  0
    7.5236   -3.3572    0.0000 O   0  0  0  0  0  0  0  0  0  0  0  0
    3.7320    4.4749    0.0000 N   0  0  0  0  0  0  0  0  0  0  0  0
    2.8660    3.9749    0.0000 N   0  0  0  0  0  0  0  0  0  0  0  0
    6.9022   -1.4562    0.0000 N   0  0  0  0  0  0  0  0  0  0  0  0
    6.6049    4.3980    0.0000 N   0  0  0  0  0  0  0  0  0  0  0  0
    2.0000    5.4749    0.0000 N   0  0  0  0  0  0  0  0  0  0  0  0
    2.8660    6.9749    0.0000 N   0  0  0  0  0  0  0  0  0  0  0  0
    4.9889    3.2197    0.0000 C   0  0  2  0  0  0  0  0  0  0  0  0
    4.0384    2.9090    0.0000 C   0  0  1  0  0  0  0  0  0  0  0  0
    4.0401    1.9090    0.0000 C   0  0  1  0  0  0  0  0  0  0  0  0
    4.9917    1.6016    0.0000 C   0  0  1  0  0  0  0  0  0  0  0  0
    4.6783    4.1702    0.0000 C   0  0  0  0  0  0  0  0  0  0  0  0
    5.3024    0.6511    0.0000 C   0  0  0  0  0  0  0  0  0  0  0  0
    5.7969    3.8088    0.0000 C   0  0  0  0  0  0  0  0  0  0  0  0
    5.2619    4.9749    0.0000 C   0  0  0  0  0  0  0  0  0  0  0  0
    3.7320    5.4749    0.0000 C   0  0  0  0  0  0  0  0  0  0  0  0
    4.6783    5.7796    0.0000 C   0  0  0  0  0  0  0  0  0  0  0  0
    2.8660    5.9749    0.0000 C   0  0  0  0  0  0  0  0  0  0  0  0
    6.2344   -2.2004    0.0000 C   0  0  2  0  0  0  0  0  0  0  0  0
    2.0000    4.4749    0.0000 C   0  0  0  0  0  0  0  0  0  0  0  0
    5.5200   -5.5901    0.0000 C   0  0  0  0  0  0  0  0  0  0  0  0
    6.1879   -4.8458    0.0000 C   0  0  0  0  0  0  0  0  0  0  0  0
    5.8307   -6.5406    0.0000 C   0  0  0  0  0  0  0  0  0  0  0  0
    4.5415   -5.3839    0.0000 C   0  0  0  0  0  0  0  0  0  0  0  0
    6.5450   -3.1510    0.0000 C   0  0  0  0  0  0  0  0  0  0  0  0
    5.2559   -1.9942    0.0000 C   0  0  0  0  0  0  0  0  0  0  0  0
    8.2864   -0.8628    0.0000 C   0  0  0  0  0  0  0  0  0  0  0  0
    5.1628   -7.2849    0.0000 C   0  0  0  0  0  0  0  0  0  0  0  0
    3.8737   -6.1282    0.0000 C   0  0  0  0  0  0  0  0  0  0  0  0
    9.2369   -0.5521    0.0000 C   0  0  0  0  0  0  0  0  0  0  0  0
    8.0802   -1.8413    0.0000 C   0  0  0  0  0  0  0  0  0  0  0  0
    9.9812   -1.2200    0.0000 C   0  0  0  0  0  0  0  0  0  0  0  0
    8.8245   -2.5092    0.0000 C   0  0  0  0  0  0  0  0  0  0  0  0
    9.7750   -2.1985    0.0000 C   0  0  0  0  0  0  0  0  0  0  0  0
    4.1343    3.5215    0.0000 H   0  0  0  0  0  0  0  0  0  0  0  0
    3.4872    2.1895    0.0000 H   0  0  0  0  0  0  0  0  0  0  0  0
    5.6043    1.5057    0.0000 H   0  0  0  0  0  0  0  0  0  0  0  0
    4.6886    0.5638    0.0000 H   0  0  0  0  0  0  0  0  0  0  0  0
    5.2818    0.0315    0.0000 H   0  0  0  0  0  0  0  0  0  0  0  0
    2.6624    3.2422    0.0000 H   0  0  0  0  0  0  0  0  0  0  0  0
    5.8819    4.9749    0.0000 H   0  0  0  0  0  0  0  0  0  0  0  0
    3.2980    0.7033    0.0000 H   0  0  0  0  0  0  0  0  0  0  0  0
    4.8709    6.3690    0.0000 H   0  0  0  0  0  0  0  0  0  0  0  0
    7.5089   -1.5840    0.0000 H   0  0  0  0  0  0  0  0  0  0  0  0
    6.8411   -2.3283    0.0000 H   0  0  0  0  0  0  0  0  0  0  0  0
    5.3274   -5.0008    0.0000 H   0  0  0  0  0  0  0  0  0  0  0  0
    1.4631    4.1649    0.0000 H   0  0  0  0  0  0  0  0  0  0  0  0
    6.5704   -5.3337    0.0000 H   0  0  0  0  0  0  0  0  0  0  0  0
    6.7348   -4.5538    0.0000 H   0  0  0  0  0  0  0  0  0  0  0  0
    6.2132   -7.0285    0.0000 H   0  0  0  0  0  0  0  0  0  0  0  0
    6.3776   -6.2486    0.0000 H   0  0  0  0  0  0  0  0  0  0  0  0
    4.7728   -4.8086    0.0000 H   0  0  0  0  0  0  0  0  0  0  0  0
    4.0152   -5.0562    0.0000 H   0  0  0  0  0  0  0  0  0  0  0  0
    2.3291    7.2849    0.0000 H   0  0  0  0  0  0  0  0  0  0  0  0
    3.4030    7.2849    0.0000 H   0  0  0  0  0  0  0  0  0  0  0  0
    5.3837   -1.3876    0.0000 H   0  0  0  0  0  0  0  0  0  0  0  0
    4.6492   -1.8664    0.0000 H   0  0  0  0  0  0  0  0  0  0  0  0
    5.1280   -2.6009    0.0000 H   0  0  0  0  0  0  0  0  0  0  0  0
    4.7014   -6.8708    0.0000 H   0  0  0  0  0  0  0  0  0  0  0  0
    4.7488   -7.7464    0.0000 H   0  0  0  0  0  0  0  0  0  0  0  0
    5.6243   -7.6990    0.0000 H   0  0  0  0  0  0  0  0  0  0  0  0
    3.4122   -5.7141    0.0000 H   0  0  0  0  0  0  0  0  0  0  0  0
    3.4596   -6.5896    0.0000 H   0  0  0  0  0  0  0  0  0  0  0  0
    4.3351   -6.5422    0.0000 H   0  0  0  0  0  0  0  0  0  0  0  0
    9.3648    0.0545    0.0000 H   0  0  0  0  0  0  0  0  0  0  0  0
    7.4908   -2.0339    0.0000 H   0  0  0  0  0  0  0  0  0  0  0  0
   10.5705   -1.0274    0.0000 H   0  0  0  0  0  0  0  0  0  0  0  0
    8.6966   -3.1158    0.0000 H   0  0  0  0  0  0  0  0  0  0  0  0
   10.2365   -2.6126    0.0000 H   0  0  0  0  0  0  0  0  0  0  0  0
  1  5  1  6  0  0  0
  1  6  1  0  0  0  0
  1  7  2  0  0  0  0
  1 12  1  0  0  0  0
  2 16  1  0  0  0  0
  2 19  1  0  0  0  0
 17  3  1  1  0  0  0
  3 48  1  0  0  0  0
 18  4  1  1  0  0  0
  4 50  1  0  0  0  0
  5 21  1  0  0  0  0
  6 35  1  0  0  0  0
  8 30  1  0  0  0  0
  8 33  1  0  0  0  0
  9 33  2  0  0  0  0
 10 11  1  0  0  0  0
 10 20  1  0  0  0  0
 10 24  1  0  0  0  0
 11 28  2  0  0  0  0
 27 12  1  6  0  0  0
 12 52  1  0  0  0  0
 13 22  3  0  0  0  0
 14 26  2  0  0  0  0
 14 28  1  0  0  0  0
 15 26  1  0  0  0  0
 15 62  1  0  0  0  0
 15 63  1  0  0  0  0
 16 17  1  0  0  0  0
 16 20  1  0  0  0  0
 16 22  1  1  0  0  0
 17 18  1  0  0  0  0
 17 43  1  0  0  0  0
 18 19  1  0  0  0  0
 18 44  1  0  0  0  0
 19 21  1  6  0  0  0
 19 45  1  0  0  0  0
 20 23  2  0  0  0  0
 21 46  1  0  0  0  0
 21 47  1  0  0  0  0
 23 25  1  0  0  0  0
 23 49  1  0  0  0  0
 24 25  2  0  0  0  0
 24 26  1  0  0  0  0
 25 51  1  0  0  0  0
 27 33  1  0  0  0  0
 27 34  1  0  0  0  0
 27 53  1  0  0  0  0
 28 55  1  0  0  0  0
 29 30  1  0  0  0  0
 29 31  1  0  0  0  0
 29 32  1  0  0  0  0
 29 54  1  0  0  0  0
 30 56  1  0  0  0  0
 30 57  1  0  0  0  0
 31 36  1  0  0  0  0
 31 58  1  0  0  0  0
 31 59  1  0  0  0  0
 32 37  1  0  0  0  0
 32 60  1  0  0  0  0
 32 61  1  0  0  0  0
 34 64  1  0  0  0  0
 34 65  1  0  0  0  0
 34 66  1  0  0  0  0
 35 38  2  0  0  0  0
 35 39  1  0  0  0  0
 36 67  1  0  0  0  0
 36 68  1  0  0  0  0
 36 69  1  0  0  0  0
 37 70  1  0  0  0  0
 37 71  1  0  0  0  0
 37 72  1  0  0  0  0
 38 40  1  0  0  0  0
 38 73  1  0  0  0  0
 39 41  2  0  0  0  0
 39 74  1  0  0  0  0
 40 42  2  0  0  0  0
 40 75  1  0  0  0  0
 41 42  1  0  0  0  0
 41 76  1  0  0  0  0
 42 77  1  0  0  0  0
M  END
> <PUBCHEM_COMPOUND_CID>
121304016

> <PUBCHEM_COMPOUND_CANONICALIZED>
1

> <PUBCHEM_CACTVS_COMPLEXITY>
1010

> <PUBCHEM_CACTVS_HBOND_ACCEPTOR>
13

> <PUBCHEM_CACTVS_HBOND_DONOR>
4

> <PUBCHEM_CACTVS_ROTATABLE_BOND>
14

> <PUBCHEM_CACTVS_SUBSKEYS>
AAADcfB7vAIAAAAAAAAAAAAAAAAAAWJAAAA8QAAAAAAAAFgB8AAAHgAYiCAADXzhlgY3/rZIFxC6RSbzbISShC8xsqAd2KG+fJiL/uLAuZuX8Ahn2BPb6C/w8PcOAAAAAAAAAAAAAAAAAAAAAAAAAAAAAA==

> <PUBCHEM_IUPAC_OPENEYE_NAME>
2-ethylbutyl (2S)-2-[[[(2R,3S,4R,5R)-5-(4-aminopyrrolo[2,1-f][1,2,4]triazin-7-yl)-5-cyano-3,4-dihydroxy-tetrahydrofuran-2-yl]methoxy-phenoxy-phosphoryl]amino]propanoate

> <PUBCHEM_IUPAC_CAS_NAME>
(2S)-2-[[[(2R,3S,4R,5R)-5-(4-amino-7-pyrrolo[2,1-f][1,2,4]triazinyl)-5-cyano-3,4-dihydroxy-2-oxolanyl]methoxy-phenoxyphosphoryl]amino]propanoic acid 2-ethylbutyl ester

> <PUBCHEM_IUPAC_NAME_MARKUP>
2-ethylbutyl (2<I>S</I>)-2-[[[(2<I>R</I>,3<I>S</I>,4<I>R</I>,5<I>R</I>)-5-(4-aminopyrrolo[2,1-f][1,2,4]triazin-7-yl)-5-cyano-3,4-dihydroxyoxolan-2-yl]methoxy-phenoxyphosphoryl]amino]propanoate

> <PUBCHEM_IUPAC_NAME>
2-ethylbutyl (2S)-2-[[[(2R,3S,4R,5R)-5-(4-aminopyrrolo[2,1-f][1,2,4]triazin-7-yl)-5-cyano-3,4-dihydroxyoxolan-2-yl]methoxy-phenoxyphosphoryl]amino]propanoate

> <PUBCHEM_IUPAC_SYSTEMATIC_NAME>
2-ethylbutyl (2S)-2-[[[(2R,3S,4R,5R)-5-(4-azanylpyrrolo[2,1-f][1,2,4]triazin-7-yl)-5-cyano-3,4-bis(oxidanyl)oxolan-2-yl]methoxy-phenoxy-phosphoryl]amino]propanoate

> <PUBCHEM_IUPAC_TRADITIONAL_NAME>
(2S)-2-[[[(2R,3S,4R,5R)-5-(4-aminopyrrolo[2,1-f][1,2,4]triazin-7-yl)-5-cyano-3,4-dihydroxy-tetrahydrofuran-2-yl]methoxy-phenoxy-phosphoryl]amino]propionic acid 2-ethylbutyl ester

> <PUBCHEM_IUPAC_INCHI>
InChI=1S/C27H35N6O8P/c1-4-18(5-2)13-38-26(36)17(3)32-42(37,41-19-9-7-6-8-10-19)39-14-21-23(34)24(35)27(15-28,40-21)22-12-11-20-25(29)30-16-31-33(20)22/h6-12,16-18,21,23-24,34-35H,4-5,13-14H2,1-3H3,(H,32,37)(H2,29,30,31)/t17-,21+,23+,24+,27-,42-/m0/s1

> <PUBCHEM_IUPAC_INCHIKEY>
RWWYLEGWBNMMLJ-YSOARWBDSA-N

> <PUBCHEM_XLOGP3_AA>
1.9

> <PUBCHEM_EXACT_MASS>
602.22539909

> <PUBCHEM_MOLECULAR_FORMULA>
C27H35N6O8P

> <PUBCHEM_MOLECULAR_WEIGHT>
602.6

> <PUBCHEM_OPENEYE_CAN_SMILES>
CCC(CC)COC(=O)C(C)NP(=O)(OCC1C(C(C(O1)(C#N)C2=CC=C3N2N=CN=C3N)O)O)OC4=CC=CC=C4

> <PUBCHEM_OPENEYE_ISO_SMILES>
CCC(CC)COC(=O)[C@H](C)N[P@](=O)(OC[C@@H]1[C@H]([C@H]([C@](O1)(C#N)C2=CC=C3N2N=CN=C3N)O)O)OC4=CC=CC=C4

> <PUBCHEM_CACTVS_TPSA>
204

> <PUBCHEM_MONOISOTOPIC_WEIGHT>
602.22539909

> <PUBCHEM_TOTAL_CHARGE>
0

> <PUBCHEM_HEAVY_ATOM_COUNT>
42

> <PUBCHEM_ATOM_DEF_STEREO_COUNT>
6

> <PUBCHEM_ATOM_UDEF_STEREO_COUNT>
0

> <PUBCHEM_BOND_DEF_STEREO_COUNT>
0

> <PUBCHEM_BOND_UDEF_STEREO_COUNT>
0

> <PUBCHEM_ISOTOPIC_ATOM_COUNT>
0

> <PUBCHEM_COMPONENT_COUNT>
1

> <PUBCHEM_CACTVS_TAUTO_COUNT>
6

> <PUBCHEM_COORDINATE_TYPE>
1
5
255

> <PUBCHEM_BONDANNOTATIONS>
1  5  6
10  11  8
10  20  8
10  24  8
11  28  8
27  12  6
14  26  8
14  28  8
16  22  5
19  21  6
20  23  8
23  25  8
24  25  8
24  26  8
17  3  5
35  38  8
35  39  8
38  40  8
39  41  8
18  4  5
40  42  8
41  42  8

$$$$
2719
  -OEChem-03012215082D

 48 49  0     1  0  0  0  0  0999 V2000
    2.0000   -4.0068    0.0000 Cl   0  0  0  0  0  0  0  0  0  0  0  0
    8.1282    2.5173    0.0000 N    0  0  0  0  0  0  0  0  0  0  0  0
    5.5301   -0.9827    0.0000 N    0  0  0  0  0  0  0  0  0  0  0  0
    5.5301   -3.9827    0.0000 N    0  0  0  0  0  0  0  0  0  0  0  0
    6.3961    0.5173    0.0000 C    0  0  0  0  0  0  0  0  0  0  0  0
    7.2622    1.0173    0.0000 C    0  0  0  0  0  0  0  0  0  0  0  0
    6.3961   -0.4827    0.0000 C    0  0  3  0  0  0  0  0  0  0  0  0
    7.2622    2.0173    0.0000 C    0  0  0  0  0  0  0  0  0  0  0  0
    7.2622   -0.9827    0.0000 C    0  0  0  0  0  0  0  0  0  0  0  0
    8.1282    3.5173    0.0000 C    0  0  0  0  0  0  0  0  0  0  0  0
    8.9942    2.0173    0.0000 C    0  0  0  0  0  0  0  0  0  0  0  0
    5.5301   -1.9827    0.0000 C    0  0  0  0  0  0  0  0  0  0  0  0
    4.6641   -2.4827    0.0000 C    0  0  0  0  0  0  0  0  0  0  0  0
    8.9942    4.0173    0.0000 C    0  0  0  0  0  0  0  0  0  0  0  0
    9.8602    2.5173    0.0000 C    0  0  0  0  0  0  0  0  0  0  0  0
    6.3961   -2.4827    0.0000 C    0  0  0  0  0  0  0  0  0  0  0  0
    4.6641   -3.4827    0.0000 C    0  0  0  0  0  0  0  0  0  0  0  0
    3.7702   -1.9480    0.0000 C    0  0  0  0  0  0  0  0  0  0  0  0
    6.3961   -3.4827    0.0000 C    0  0  0  0  0  0  0  0  0  0  0  0
    3.7702   -4.0173    0.0000 C    0  0  0  0  0  0  0  0  0  0  0  0
    2.8641   -2.4618    0.0000 C    0  0  0  0  0  0  0  0  0  0  0  0
    2.8641   -3.5035    0.0000 C    0  0  0  0  0  0  0  0  0  0  0  0
    6.1841    1.0999    0.0000 H    0  0  0  0  0  0  0  0  0  0  0  0
    5.7856    0.4097    0.0000 H    0  0  0  0  0  0  0  0  0  0  0  0
    7.4742    0.4347    0.0000 H    0  0  0  0  0  0  0  0  0  0  0  0
    7.8728    1.1250    0.0000 H    0  0  0  0  0  0  0  0  0  0  0  0
    5.8592   -0.1727    0.0000 H    0  0  0  0  0  0  0  0  0  0  0  0
    7.0501    2.5999    0.0000 H    0  0  0  0  0  0  0  0  0  0  0  0
    6.6516    1.9097    0.0000 H    0  0  0  0  0  0  0  0  0  0  0  0
    4.9932   -0.6727    0.0000 H    0  0  0  0  0  0  0  0  0  0  0  0
    6.9522   -1.5196    0.0000 H    0  0  0  0  0  0  0  0  0  0  0  0
    7.7991   -1.2927    0.0000 H    0  0  0  0  0  0  0  0  0  0  0  0
    7.5722   -0.4457    0.0000 H    0  0  0  0  0  0  0  0  0  0  0  0
    7.9162    4.0999    0.0000 H    0  0  0  0  0  0  0  0  0  0  0  0
    7.5176    3.4097    0.0000 H    0  0  0  0  0  0  0  0  0  0  0  0
    8.5957    1.5424    0.0000 H    0  0  0  0  0  0  0  0  0  0  0  0
    9.3928    1.5424    0.0000 H    0  0  0  0  0  0  0  0  0  0  0  0
    9.3042    3.4804    0.0000 H    0  0  0  0  0  0  0  0  0  0  0  0
    9.5312    4.3273    0.0000 H    0  0  0  0  0  0  0  0  0  0  0  0
    8.6842    4.5543    0.0000 H    0  0  0  0  0  0  0  0  0  0  0  0
   10.1703    1.9804    0.0000 H    0  0  0  0  0  0  0  0  0  0  0  0
   10.3972    2.8273    0.0000 H    0  0  0  0  0  0  0  0  0  0  0  0
    9.5502    3.0543    0.0000 H    0  0  0  0  0  0  0  0  0  0  0  0
    6.9331   -2.1727    0.0000 H    0  0  0  0  0  0  0  0  0  0  0  0
    3.7773   -1.3280    0.0000 H    0  0  0  0  0  0  0  0  0  0  0  0
    6.9331   -3.7927    0.0000 H    0  0  0  0  0  0  0  0  0  0  0  0
    3.7773   -4.6373    0.0000 H    0  0  0  0  0  0  0  0  0  0  0  0
    2.3284   -2.1498    0.0000 H    0  0  0  0  0  0  0  0  0  0  0  0
  1 22  1  0  0  0  0
  2  8  1  0  0  0  0
  2 10  1  0  0  0  0
  2 11  1  0  0  0  0
  3  7  1  0  0  0  0
  3 12  1  0  0  0  0
  3 30  1  0  0  0  0
  4 17  2  0  0  0  0
  4 19  1  0  0  0  0
  5  6  1  0  0  0  0
  5  7  1  0  0  0  0
  5 23  1  0  0  0  0
  5 24  1  0  0  0  0
  6  8  1  0  0  0  0
  6 25  1  0  0  0  0
  6 26  1  0  0  0  0
  7  9  1  0  0  0  0
  7 27  1  0  0  0  0
  8 28  1  0  0  0  0
  8 29  1  0  0  0  0
  9 31  1  0  0  0  0
  9 32  1  0  0  0  0
  9 33  1  0  0  0  0
 10 14  1  0  0  0  0
 10 34  1  0  0  0  0
 10 35  1  0  0  0  0
 11 15  1  0  0  0  0
 11 36  1  0  0  0  0
 11 37  1  0  0  0  0
 12 13  2  0  0  0  0
 12 16  1  0  0  0  0
 13 17  1  0  0  0  0
 13 18  1  0  0  0  0
 14 38  1  0  0  0  0
 14 39  1  0  0  0  0
 14 40  1  0  0  0  0
 15 41  1  0  0  0  0
 15 42  1  0  0  0  0
 15 43  1  0  0  0  0
 16 19  2  0  0  0  0
 16 44  1  0  0  0  0
 17 20  1  0  0  0  0
 18 21  2  0  0  0  0
 18 45  1  0  0  0  0
 19 46  1  0  0  0  0
 20 22  2  0  0  0  0
 20 47  1  0  0  0  0
 21 22  1  0  0  0  0
 21 48  1  0  0  0  0
M  END
> <PUBCHEM_COMPOUND_CID>
2719

> <PUBCHEM_COMPOUND_CANONICALIZED>
1

> <PUBCHEM_CACTVS_COMPLEXITY>
309

> <PUBCHEM_CACTVS_HBOND_ACCEPTOR>
3

> <PUBCHEM_CACTVS_HBOND_DONOR>
1

> <PUBCHEM_CACTVS_ROTATABLE_BOND>
8

> <PUBCHEM_CACTVS_SUBSKEYS>
AAADceB7AAAEAAAAAAAAAAAAAAAAAAAAAAA8QAAAAAAAAACx8AAAHAIQAAAADCrBHiQ+wPPIEACgAzRnRACCgCAxByAI2KA4ZpgIIOLB09GEJAhgkADIyAcQgIAOBAAAAAICAAAIAAAABAQAAAAAAAAAAA==

> <PUBCHEM_IUPAC_OPENEYE_NAME>
N4-(7-chloro-4-quinolyl)-N1,N1-diethyl-pentane-1,4-diamine

> <PUBCHEM_IUPAC_CAS_NAME>
N4-(7-chloro-4-quinolinyl)-N1,N1-diethylpentane-1,4-diamine

> <PUBCHEM_IUPAC_NAME_MARKUP>
4-<I>N</I>-(7-chloroquinolin-4-yl)-1-<I>N</I>,1-<I>N</I>-diethylpentane-1,4-diamine

> <PUBCHEM_IUPAC_NAME>
4-N-(7-chloroquinolin-4-yl)-1-N,1-N-diethylpentane-1,4-diamine

> <PUBCHEM_IUPAC_SYSTEMATIC_NAME>
N4-(7-chloranylquinolin-4-yl)-N1,N1-diethyl-pentane-1,4-diamine

> <PUBCHEM_IUPAC_TRADITIONAL_NAME>
4-[(7-chloro-4-quinolyl)amino]pentyl-diethyl-amine

> <PUBCHEM_IUPAC_INCHI>
InChI=1S/C18H26ClN3/c1-4-22(5-2)12-6-7-14(3)21-17-10-11-20-18-13-15(19)8-9-16(17)18/h8-11,13-14H,4-7,12H2,1-3H3,(H,20,21)

> <PUBCHEM_IUPAC_INCHIKEY>
WHTVZRBIWZFKQO-UHFFFAOYSA-N

> <PUBCHEM_XLOGP3>
4.6

> <PUBCHEM_EXACT_MASS>
319.1815255

> <PUBCHEM_MOLECULAR_FORMULA>
C18H26ClN3

> <PUBCHEM_MOLECULAR_WEIGHT>
319.9

> <PUBCHEM_OPENEYE_CAN_SMILES>
CCN(CC)CCCC(C)NC1=C2C=CC(=CC2=NC=C1)Cl

> <PUBCHEM_OPENEYE_ISO_SMILES>
CCN(CC)CCCC(C)NC1=C2C=CC(=CC2=NC=C1)Cl

> <PUBCHEM_CACTVS_TPSA>
28.2

> <PUBCHEM_MONOISOTOPIC_WEIGHT>
319.1815255

> <PUBCHEM_TOTAL_CHARGE>
0

> <PUBCHEM_HEAVY_ATOM_COUNT>
22

> <PUBCHEM_ATOM_DEF_STEREO_COUNT>
0

> <PUBCHEM_ATOM_UDEF_STEREO_COUNT>
1

> <PUBCHEM_BOND_DEF_STEREO_COUNT>
0

> <PUBCHEM_BOND_UDEF_STEREO_COUNT>
0

> <PUBCHEM_ISOTOPIC_ATOM_COUNT>
0

> <PUBCHEM_COMPONENT_COUNT>
1

> <PUBCHEM_CACTVS_TAUTO_COUNT>
-1

> <PUBCHEM_COORDINATE_TYPE>
1
5
255

> <PUBCHEM_BONDANNOTATIONS>
12  13  8
12  16  8
13  17  8
13  18  8
16  19  8
17  20  8
18  21  8
20  22  8
21  22  8
4  17  8
4  19  8
7  9  3

$$$$
392622
  -OEChem-03012215082D

 98101  0     1  0  0  0  0  0999 V2000
   12.6090    0.0476    0.0000 S   0  0  0  0  0  0  0  0  0  0  0  0
    8.9757   -1.3433    0.0000 S   0  0  0  0  0  0  0  0  0  0  0  0
    2.8660    0.2500    0.0000 O   0  0  0  0  0  0  0  0  0  0  0  0
    6.3301    0.2500    0.0000 O   0  0  0  0  0  0  0  0  0  0  0  0
    6.3301   -1.7500    0.0000 O   0  0  0  0  0  0  0  0  0  0  0  0
    5.4641   -0.2500    0.0000 O   0  0  0  0  0  0  0  0  0  0  0  0
    8.9282    2.7500    0.0000 O   0  0  0  0  0  0  0  0  0  0  0  0
    5.4641    1.7500    0.0000 N   0  0  0  0  0  0  0  0  0  0  0  0
    4.5981   -1.7500    0.0000 N   0  0  0  0  0  0  0  0  0  0  0  0
    8.0622    1.2500    0.0000 N   0  0  0  0  0  0  0  0  0  0  0  0
    9.7942    1.2500    0.0000 N   0  0  0  0  0  0  0  0  0  0  0  0
   12.4398    1.6567    0.0000 N   0  0  0  0  0  0  0  0  0  0  0  0
    9.1448   -2.9524    0.0000 N   0  0  0  0  0  0  0  0  0  0  0  0
    4.5981    1.2500    0.0000 C   0  0  2  0  0  0  0  0  0  0  0  0
    4.5981    0.2500    0.0000 C   0  0  0  0  0  0  0  0  0  0  0  0
    3.7320   -0.2500    0.0000 C   0  0  1  0  0  0  0  0  0  0  0  0
    3.7320   -1.2500    0.0000 C   0  0  2  0  0  0  0  0  0  0  0  0
    3.7320    1.7500    0.0000 C   0  0  0  0  0  0  0  0  0  0  0  0
    2.8660   -1.7500    0.0000 C   0  0  0  0  0  0  0  0  0  0  0  0
    7.1962    1.7500    0.0000 C   0  0  1  0  0  0  0  0  0  0  0  0
    7.1962    2.7500    0.0000 C   0  0  0  0  0  0  0  0  0  0  0  0
    6.3301    1.2500    0.0000 C   0  0  0  0  0  0  0  0  0  0  0  0
    3.7320    2.7500    0.0000 C   0  0  0  0  0  0  0  0  0  0  0  0
    2.8660   -2.7500    0.0000 C   0  0  0  0  0  0  0  0  0  0  0  0
    8.0622    3.2500    0.0000 C   0  0  0  0  0  0  0  0  0  0  0  0
    6.3301    3.2500    0.0000 C   0  0  0  0  0  0  0  0  0  0  0  0
    2.8660    3.2500    0.0000 C   0  0  0  0  0  0  0  0  0  0  0  0
    4.5981    3.2500    0.0000 C   0  0  0  0  0  0  0  0  0  0  0  0
    5.4641   -1.2500    0.0000 C   0  0  0  0  0  0  0  0  0  0  0  0
    3.7320   -3.2500    0.0000 C   0  0  0  0  0  0  0  0  0  0  0  0
    2.0000   -3.2500    0.0000 C   0  0  0  0  0  0  0  0  0  0  0  0
    8.9282    1.7500    0.0000 C   0  0  0  0  0  0  0  0  0  0  0  0
    2.8660    4.2500    0.0000 C   0  0  0  0  0  0  0  0  0  0  0  0
    4.5981    4.2500    0.0000 C   0  0  0  0  0  0  0  0  0  0  0  0
    3.7320   -4.2500    0.0000 C   0  0  0  0  0  0  0  0  0  0  0  0
    2.0000   -4.2500    0.0000 C   0  0  0  0  0  0  0  0  0  0  0  0
    3.7320    4.7500    0.0000 C   0  0  0  0  0  0  0  0  0  0  0  0
    2.8660   -4.7500    0.0000 C   0  0  0  0  0  0  0  0  0  0  0  0
   10.6603    1.7500    0.0000 C   0  0  0  0  0  0  0  0  0  0  0  0
    9.7942    0.2500    0.0000 C   0  0  0  0  0  0  0  0  0  0  0  0
    7.1962   -1.2500    0.0000 C   0  0  0  0  0  0  0  0  0  0  0  0
   11.5263    1.2500    0.0000 C   0  0  0  0  0  0  0  0  0  0  0  0
    8.0622   -1.7500    0.0000 C   0  0  0  0  0  0  0  0  0  0  0  0
   13.1090    0.9136    0.0000 C   0  0  0  0  0  0  0  0  0  0  0  0
   11.6308    0.2555    0.0000 C   0  0  0  0  0  0  0  0  0  0  0  0
   14.1035    1.0181    0.0000 C   0  0  0  0  0  0  0  0  0  0  0  0
   14.6913    0.2091    0.0000 C   0  0  0  0  0  0  0  0  0  0  0  0
   14.5102    1.9317    0.0000 C   0  0  0  0  0  0  0  0  0  0  0  0
    8.1667   -2.7445    0.0000 C   0  0  0  0  0  0  0  0  0  0  0  0
    9.6448   -2.0864    0.0000 C   0  0  0  0  0  0  0  0  0  0  0  0
    4.5981    1.8700    0.0000 H   0  0  0  0  0  0  0  0  0  0  0  0
    4.8101   -0.3326    0.0000 H   0  0  0  0  0  0  0  0  0  0  0  0
    5.2087    0.3577    0.0000 H   0  0  0  0  0  0  0  0  0  0  0  0
    3.7320    0.3700    0.0000 H   0  0  0  0  0  0  0  0  0  0  0  0
    3.7320   -1.8700    0.0000 H   0  0  0  0  0  0  0  0  0  0  0  0
    3.1215    1.8577    0.0000 H   0  0  0  0  0  0  0  0  0  0  0  0
    3.5200    1.1674    0.0000 H   0  0  0  0  0  0  0  0  0  0  0  0
    2.6540   -1.1674    0.0000 H   0  0  0  0  0  0  0  0  0  0  0  0
    2.2554   -1.8577    0.0000 H   0  0  0  0  0  0  0  0  0  0  0  0
    5.4641    2.3700    0.0000 H   0  0  0  0  0  0  0  0  0  0  0  0
    7.7331    2.0600    0.0000 H   0  0  0  0  0  0  0  0  0  0  0  0
    6.6592    2.4400    0.0000 H   0  0  0  0  0  0  0  0  0  0  0  0
    4.5981   -2.3700    0.0000 H   0  0  0  0  0  0  0  0  0  0  0  0
    2.8660    0.8700    0.0000 H   0  0  0  0  0  0  0  0  0  0  0  0
    8.0622    0.6300    0.0000 H   0  0  0  0  0  0  0  0  0  0  0  0
    8.3722    2.7131    0.0000 H   0  0  0  0  0  0  0  0  0  0  0  0
    8.5991    3.5600    0.0000 H   0  0  0  0  0  0  0  0  0  0  0  0
    7.7522    3.7869    0.0000 H   0  0  0  0  0  0  0  0  0  0  0  0
    6.6401    3.7869    0.0000 H   0  0  0  0  0  0  0  0  0  0  0  0
    5.7932    3.5600    0.0000 H   0  0  0  0  0  0  0  0  0  0  0  0
    6.0201    2.7131    0.0000 H   0  0  0  0  0  0  0  0  0  0  0  0
    2.3291    2.9400    0.0000 H   0  0  0  0  0  0  0  0  0  0  0  0
    5.1350    2.9400    0.0000 H   0  0  0  0  0  0  0  0  0  0  0  0
    4.2690   -2.9400    0.0000 H   0  0  0  0  0  0  0  0  0  0  0  0
    1.4631   -2.9400    0.0000 H   0  0  0  0  0  0  0  0  0  0  0  0
    2.3291    4.5600    0.0000 H   0  0  0  0  0  0  0  0  0  0  0  0
    5.1350    4.5600    0.0000 H   0  0  0  0  0  0  0  0  0  0  0  0
    4.2690   -4.5600    0.0000 H   0  0  0  0  0  0  0  0  0  0  0  0
    1.4631   -4.5600    0.0000 H   0  0  0  0  0  0  0  0  0  0  0  0
    3.7320    5.3700    0.0000 H   0  0  0  0  0  0  0  0  0  0  0  0
    2.8660   -5.3700    0.0000 H   0  0  0  0  0  0  0  0  0  0  0  0
   11.0588    2.2250    0.0000 H   0  0  0  0  0  0  0  0  0  0  0  0
   10.2617    2.2250    0.0000 H   0  0  0  0  0  0  0  0  0  0  0  0
    9.1742    0.2500    0.0000 H   0  0  0  0  0  0  0  0  0  0  0  0
    9.7942   -0.3700    0.0000 H   0  0  0  0  0  0  0  0  0  0  0  0
   10.4142    0.2500    0.0000 H   0  0  0  0  0  0  0  0  0  0  0  0
    7.5947   -0.7751    0.0000 H   0  0  0  0  0  0  0  0  0  0  0  0
    6.7976   -0.7751    0.0000 H   0  0  0  0  0  0  0  0  0  0  0  0
   14.7201    1.0829    0.0000 H   0  0  0  0  0  0  0  0  0  0  0  0
   11.1701   -0.1594    0.0000 H   0  0  0  0  0  0  0  0  0  0  0  0
   14.1897   -0.1553    0.0000 H   0  0  0  0  0  0  0  0  0  0  0  0
   15.0557   -0.2925    0.0000 H   0  0  0  0  0  0  0  0  0  0  0  0
   15.1929    0.5735    0.0000 H   0  0  0  0  0  0  0  0  0  0  0  0
   15.0766    1.6795    0.0000 H   0  0  0  0  0  0  0  0  0  0  0  0
   14.7624    2.4981    0.0000 H   0  0  0  0  0  0  0  0  0  0  0  0
   13.9438    2.1838    0.0000 H   0  0  0  0  0  0  0  0  0  0  0  0
    7.7060   -3.1594    0.0000 H   0  0  0  0  0  0  0  0  0  0  0  0
   10.2615   -2.0216    0.0000 H   0  0  0  0  0  0  0  0  0  0  0  0
  1 44  1  0  0  0  0
  1 45  1  0  0  0  0
  2 43  1  0  0  0  0
  2 50  1  0  0  0  0
 16  3  1  1  0  0  0
  3 64  1  0  0  0  0
  4 22  2  0  0  0  0
  5 29  1  0  0  0  0
  5 41  1  0  0  0  0
  6 29  2  0  0  0  0
  7 32  2  0  0  0  0
 14  8  1  6  0  0  0
  8 22  1  0  0  0  0
  8 60  1  0  0  0  0
 17  9  1  1  0  0  0
  9 29  1  0  0  0  0
  9 63  1  0  0  0  0
 20 10  1  6  0  0  0
 10 32  1  0  0  0  0
 10 65  1  0  0  0  0
 11 32  1  0  0  0  0
 11 39  1  0  0  0  0
 11 40  1  0  0  0  0
 12 42  1  0  0  0  0
 12 44  2  0  0  0  0
 13 49  1  0  0  0  0
 13 50  2  0  0  0  0
 14 15  1  0  0  0  0
 14 18  1  0  0  0  0
 14 51  1  0  0  0  0
 15 16  1  0  0  0  0
 15 52  1  0  0  0  0
 15 53  1  0  0  0  0
 16 17  1  0  0  0  0
 16 54  1  0  0  0  0
 17 19  1  0  0  0  0
 17 55  1  0  0  0  0
 18 23  1  0  0  0  0
 18 56  1  0  0  0  0
 18 57  1  0  0  0  0
 19 24  1  0  0  0  0
 19 58  1  0  0  0  0
 19 59  1  0  0  0  0
 20 21  1  0  0  0  0
 20 22  1  0  0  0  0
 20 61  1  0  0  0  0
 21 25  1  0  0  0  0
 21 26  1  0  0  0  0
 21 62  1  0  0  0  0
 23 27  2  0  0  0  0
 23 28  1  0  0  0  0
 24 30  2  0  0  0  0
 24 31  1  0  0  0  0
 25 66  1  0  0  0  0
 25 67  1  0  0  0  0
 25 68  1  0  0  0  0
 26 69  1  0  0  0  0
 26 70  1  0  0  0  0
 26 71  1  0  0  0  0
 27 33  1  0  0  0  0
 27 72  1  0  0  0  0
 28 34  2  0  0  0  0
 28 73  1  0  0  0  0
 30 35  1  0  0  0  0
 30 74  1  0  0  0  0
 31 36  2  0  0  0  0
 31 75  1  0  0  0  0
 33 37  2  0  0  0  0
 33 76  1  0  0  0  0
 34 37  1  0  0  0  0
 34 77  1  0  0  0  0
 35 38  2  0  0  0  0
 35 78  1  0  0  0  0
 36 38  1  0  0  0  0
 36 79  1  0  0  0  0
 37 80  1  0  0  0  0
 38 81  1  0  0  0  0
 39 42  1  0  0  0  0
 39 82  1  0  0  0  0
 39 83  1  0  0  0  0
 40 84  1  0  0  0  0
 40 85  1  0  0  0  0
 40 86  1  0  0  0  0
 41 43  1  0  0  0  0
 41 87  1  0  0  0  0
 41 88  1  0  0  0  0
 42 45  2  0  0  0  0
 43 49  2  0  0  0  0
 44 46  1  0  0  0  0
 45 90  1  0  0  0  0
 46 47  1  0  0  0  0
 46 48  1  0  0  0  0
 46 89  1  0  0  0  0
 47 91  1  0  0  0  0
 47 92  1  0  0  0  0
 47 93  1  0  0  0  0
 48 94  1  0  0  0  0
 48 95  1  0  0  0  0
 48 96  1  0  0  0  0
 49 97  1  0  0  0  0
 50 98  1  0  0  0  0
M  END
> <PUBCHEM_COMPOUND_CID>
392622

> <PUBCHEM_COMPOUND_CANONICALIZED>
1

> <PUBCHEM_CACTVS_COMPLEXITY>
1040

> <PUBCHEM_CACTVS_HBOND_ACCEPTOR>
9

> <PUBCHEM_CACTVS_HBOND_DONOR>
4

> <PUBCHEM_CACTVS_ROTATABLE_BOND>
18

> <PUBCHEM_CACTVS_SUBSKEYS>
AAADcfB/uABgAAAAAAAAAAAAAAAAAWLAAAAwYAAAAAAAAAAB9AAAHgQQCAAADTzl3ga/iZPIFgisAzV3XACC8KBxCjhI2J24bImKdDLgsTmcYAgulgL4qAeQwPAOAAAAAAAAAAAAAAAAAAAAAAAAAAAAAA==

> <PUBCHEM_IUPAC_OPENEYE_NAME>
thiazol-5-ylmethyl N-[(1S,2S,4S)-1-benzyl-2-hydroxy-4-[[(2S)-2-[[(2-isopropylthiazol-4-yl)methyl-methyl-carbamoyl]amino]-3-methyl-butanoyl]amino]-5-phenyl-pentyl]carbamate

> <PUBCHEM_IUPAC_CAS_NAME>
N-[(2S,3S,5S)-3-hydroxy-5-[[(2S)-3-methyl-2-[[[methyl-[(2-propan-2-yl-4-thiazolyl)methyl]amino]-oxomethyl]amino]-1-oxobutyl]amino]-1,6-diphenylhexan-2-yl]carbamic acid 5-thiazolylmethyl ester

> <PUBCHEM_IUPAC_NAME_MARKUP>
1,3-thiazol-5-ylmethyl <I>N</I>-[(2<I>S</I>,3<I>S</I>,5<I>S</I>)-3-hydroxy-5-[[(2<I>S</I>)-3-methyl-2-[[methyl-[(2-propan-2-yl-1,3-thiazol-4-yl)methyl]carbamoyl]amino]butanoyl]amino]-1,6-diphenylhexan-2-yl]carbamate

> <PUBCHEM_IUPAC_NAME>
1,3-thiazol-5-ylmethyl N-[(2S,3S,5S)-3-hydroxy-5-[[(2S)-3-methyl-2-[[methyl-[(2-propan-2-yl-1,3-thiazol-4-yl)methyl]carbamoyl]amino]butanoyl]amino]-1,6-diphenylhexan-2-yl]carbamate

> <PUBCHEM_IUPAC_SYSTEMATIC_NAME>
1,3-thiazol-5-ylmethyl N-[(2S,3S,5S)-5-[[(2S)-3-methyl-2-[[methyl-[(2-propan-2-yl-1,3-thiazol-4-yl)methyl]carbamoyl]amino]butanoyl]amino]-3-oxidanyl-1,6-diphenyl-hexan-2-yl]carbamate

> <PUBCHEM_IUPAC_TRADITIONAL_NAME>
N-[(1S,2S,4S)-1-benzyl-2-hydroxy-4-[[(2S)-2-[[(2-isopropylthiazol-4-yl)methyl-methyl-carbamoyl]amino]-3-methyl-butanoyl]amino]-5-phenyl-pentyl]carbamic acid thiazol-5-ylmethyl ester

> <PUBCHEM_IUPAC_INCHI>
InChI=1S/C37H48N6O5S2/c1-24(2)33(42-36(46)43(5)20-29-22-49-35(40-29)25(3)4)34(45)39-28(16-26-12-8-6-9-13-26)18-32(44)31(17-27-14-10-7-11-15-27)41-37(47)48-21-30-19-38-23-50-30/h6-15,19,22-25,28,31-33,44H,16-18,20-21H2,1-5H3,(H,39,45)(H,41,47)(H,42,46)/t28-,31-,32-,33-/m0/s1

> <PUBCHEM_IUPAC_INCHIKEY>
NCDNCNXCDXHOMX-XGKFQTDJSA-N

> <PUBCHEM_XLOGP3_AA>
6

> <PUBCHEM_EXACT_MASS>
720.31276100

> <PUBCHEM_MOLECULAR_FORMULA>
C37H48N6O5S2

> <PUBCHEM_MOLECULAR_WEIGHT>
720.9

> <PUBCHEM_OPENEYE_CAN_SMILES>
CC(C)C1=NC(=CS1)CN(C)C(=O)NC(C(C)C)C(=O)NC(CC2=CC=CC=C2)CC(C(CC3=CC=CC=C3)NC(=O)OCC4=CN=CS4)O

> <PUBCHEM_OPENEYE_ISO_SMILES>
CC(C)C1=NC(=CS1)CN(C)C(=O)N[C@@H](C(C)C)C(=O)N[C@@H](CC2=CC=CC=C2)C[C@@H]([C@H](CC3=CC=CC=C3)NC(=O)OCC4=CN=CS4)O

> <PUBCHEM_CACTVS_TPSA>
202

> <PUBCHEM_MONOISOTOPIC_WEIGHT>
720.31276100

> <PUBCHEM_TOTAL_CHARGE>
0

> <PUBCHEM_HEAVY_ATOM_COUNT>
50

> <PUBCHEM_ATOM_DEF_STEREO_COUNT>
4

> <PUBCHEM_ATOM_UDEF_STEREO_COUNT>
0

> <PUBCHEM_BOND_DEF_STEREO_COUNT>
0

> <PUBCHEM_BOND_UDEF_STEREO_COUNT>
0

> <PUBCHEM_ISOTOPIC_ATOM_COUNT>
0

> <PUBCHEM_COMPONENT_COUNT>
1

> <PUBCHEM_CACTVS_TAUTO_COUNT>
16

> <PUBCHEM_COORDINATE_TYPE>
1
5
255

> <PUBCHEM_BONDANNOTATIONS>
1  44  8
1  45  8
20  10  6
12  42  8
12  44  8
13  49  8
13  50  8
2  43  8
2  50  8
23  27  8
23  28  8
24  30  8
24  31  8
27  33  8
28  34  8
16  3  5
30  35  8
31  36  8
33  37  8
34  37  8
35  38  8
36  38  8
42  45  8
43  49  8
14  8  6
17  9  5

$$$$
107970
  -OEChem-03012215082D

 55 55  0     0  0  0  0  0  0999 V2000
    7.8301    3.7290    0.0000 O   0  0  0  0  0  0  0  0  0  0  0  0
    4.8301    5.4610    0.0000 O   0  0  0  0  0  0  0  0  0  0  0  0
    6.3301    5.5950    0.0000 N   0  0  0  0  0  0  0  0  0  0  0  0
    6.3301    4.5950    0.0000 C   0  0  0  0  0  0  0  0  0  0  0  0
    6.3301    3.5950    0.0000 C   0  0  0  0  0  0  0  0  0  0  0  0
    5.4641    3.0950    0.0000 C   0  0  0  0  0  0  0  0  0  0  0  0
    7.3301    4.5950    0.0000 C   0  0  0  0  0  0  0  0  0  0  0  0
    5.3301    4.5950    0.0000 C   0  0  0  0  0  0  0  0  0  0  0  0
    4.5981   -2.4050    0.0000 C   0  0  0  0  0  0  0  0  0  0  0  0
    4.5981   -1.4050    0.0000 C   0  0  0  0  0  0  0  0  0  0  0  0
    3.7320   -2.9050    0.0000 C   0  0  0  0  0  0  0  0  0  0  0  0
    5.4641    2.0950    0.0000 C   0  0  0  0  0  0  0  0  0  0  0  0
    5.4641   -0.9050    0.0000 C   0  0  0  0  0  0  0  0  0  0  0  0
    3.7320   -3.9050    0.0000 C   0  0  0  0  0  0  0  0  0  0  0  0
    5.4641    0.0950    0.0000 C   0  0  0  0  0  0  0  0  0  0  0  0
    2.8660   -4.4050    0.0000 C   0  0  0  0  0  0  0  0  0  0  0  0
    6.3301    1.5950    0.0000 C   0  0  0  0  0  0  0  0  0  0  0  0
    4.5981    1.5950    0.0000 C   0  0  0  0  0  0  0  0  0  0  0  0
    6.3301    0.5950    0.0000 C   0  0  0  0  0  0  0  0  0  0  0  0
    4.5981    0.5950    0.0000 C   0  0  0  0  0  0  0  0  0  0  0  0
    2.8660   -5.4050    0.0000 C   0  0  0  0  0  0  0  0  0  0  0  0
    2.0000   -5.9050    0.0000 C   0  0  0  0  0  0  0  0  0  0  0  0
    6.5422    3.0124    0.0000 H   0  0  0  0  0  0  0  0  0  0  0  0
    6.9407    3.7027    0.0000 H   0  0  0  0  0  0  0  0  0  0  0  0
    5.2520    3.6776    0.0000 H   0  0  0  0  0  0  0  0  0  0  0  0
    4.8535    2.9873    0.0000 H   0  0  0  0  0  0  0  0  0  0  0  0
    7.9127    4.8070    0.0000 H   0  0  0  0  0  0  0  0  0  0  0  0
    7.2225    5.2056    0.0000 H   0  0  0  0  0  0  0  0  0  0  0  0
    4.7475    4.3830    0.0000 H   0  0  0  0  0  0  0  0  0  0  0  0
    5.4378    3.9844    0.0000 H   0  0  0  0  0  0  0  0  0  0  0  0
    4.8101   -2.9876    0.0000 H   0  0  0  0  0  0  0  0  0  0  0  0
    5.2087   -2.2973    0.0000 H   0  0  0  0  0  0  0  0  0  0  0  0
    4.3860   -0.8224    0.0000 H   0  0  0  0  0  0  0  0  0  0  0  0
    3.9875   -1.5127    0.0000 H   0  0  0  0  0  0  0  0  0  0  0  0
    3.5200   -2.3224    0.0000 H   0  0  0  0  0  0  0  0  0  0  0  0
    3.1215   -3.0127    0.0000 H   0  0  0  0  0  0  0  0  0  0  0  0
    5.6762   -1.4876    0.0000 H   0  0  0  0  0  0  0  0  0  0  0  0
    6.0747   -0.7973    0.0000 H   0  0  0  0  0  0  0  0  0  0  0  0
    3.9441   -4.4876    0.0000 H   0  0  0  0  0  0  0  0  0  0  0  0
    4.3426   -3.7973    0.0000 H   0  0  0  0  0  0  0  0  0  0  0  0
    6.8671    5.9050    0.0000 H   0  0  0  0  0  0  0  0  0  0  0  0
    5.7932    5.9050    0.0000 H   0  0  0  0  0  0  0  0  0  0  0  0
    2.6540   -3.8224    0.0000 H   0  0  0  0  0  0  0  0  0  0  0  0
    2.2554   -4.5127    0.0000 H   0  0  0  0  0  0  0  0  0  0  0  0
    6.8671    1.9050    0.0000 H   0  0  0  0  0  0  0  0  0  0  0  0
    4.0611    1.9050    0.0000 H   0  0  0  0  0  0  0  0  0  0  0  0
    6.8671    0.2850    0.0000 H   0  0  0  0  0  0  0  0  0  0  0  0
    4.0611    0.2850    0.0000 H   0  0  0  0  0  0  0  0  0  0  0  0
    3.0781   -5.9876    0.0000 H   0  0  0  0  0  0  0  0  0  0  0  0
    3.4766   -5.2973    0.0000 H   0  0  0  0  0  0  0  0  0  0  0  0
    8.4501    3.7290    0.0000 H   0  0  0  0  0  0  0  0  0  0  0  0
    4.2101    5.4610    0.0000 H   0  0  0  0  0  0  0  0  0  0  0  0
    1.6900   -5.3681    0.0000 H   0  0  0  0  0  0  0  0  0  0  0  0
    1.4631   -6.2150    0.0000 H   0  0  0  0  0  0  0  0  0  0  0  0
    2.3100   -6.4419    0.0000 H   0  0  0  0  0  0  0  0  0  0  0  0
  1  7  1  0  0  0  0
  1 51  1  0  0  0  0
  2  8  1  0  0  0  0
  2 52  1  0  0  0  0
  3  4  1  0  0  0  0
  3 41  1  0  0  0  0
  3 42  1  0  0  0  0
  4  5  1  0  0  0  0
  4  7  1  0  0  0  0
  4  8  1  0  0  0  0
  5  6  1  0  0  0  0
  5 23  1  0  0  0  0
  5 24  1  0  0  0  0
  6 12  1  0  0  0  0
  6 25  1  0  0  0  0
  6 26  1  0  0  0  0
  7 27  1  0  0  0  0
  7 28  1  0  0  0  0
  8 29  1  0  0  0  0
  8 30  1  0  0  0  0
  9 10  1  0  0  0  0
  9 11  1  0  0  0  0
  9 31  1  0  0  0  0
  9 32  1  0  0  0  0
 10 13  1  0  0  0  0
 10 33  1  0  0  0  0
 10 34  1  0  0  0  0
 11 14  1  0  0  0  0
 11 35  1  0  0  0  0
 11 36  1  0  0  0  0
 12 17  2  0  0  0  0
 12 18  1  0  0  0  0
 13 15  1  0  0  0  0
 13 37  1  0  0  0  0
 13 38  1  0  0  0  0
 14 16  1  0  0  0  0
 14 39  1  0  0  0  0
 14 40  1  0  0  0  0
 15 19  2  0  0  0  0
 15 20  1  0  0  0  0
 16 21  1  0  0  0  0
 16 43  1  0  0  0  0
 16 44  1  0  0  0  0
 17 19  1  0  0  0  0
 17 45  1  0  0  0  0
 18 20  2  0  0  0  0
 18 46  1  0  0  0  0
 19 47  1  0  0  0  0
 20 48  1  0  0  0  0
 21 22  1  0  0  0  0
 21 49  1  0  0  0  0
 21 50  1  0  0  0  0
 22 53  1  0  0  0  0
 22 54  1  0  0  0  0
 22 55  1  0  0  0  0
M  END
> <PUBCHEM_COMPOUND_CID>
107970

> <PUBCHEM_COMPOUND_CANONICALIZED>
1

> <PUBCHEM_CACTVS_COMPLEXITY>
258

> <PUBCHEM_CACTVS_HBOND_ACCEPTOR>
3

> <PUBCHEM_CACTVS_HBOND_DONOR>
3

> <PUBCHEM_CACTVS_ROTATABLE_BOND>
12

> <PUBCHEM_CACTVS_SUBSKEYS>
AAADcfB6MAAAAAAAAAAAAAAAAAAAAAAAAAAwAAAAAAAAAAABAAAAHgAQCAAADIihmAIyAIBAAgCAAiBCAAACAAAgAAAIiAAAAIgKMCKAkRCAYAAlkAAIiAeQwPAOQAAAAAAAAACAAAAAAAAAAAAAAAAAAA==

> <PUBCHEM_IUPAC_OPENEYE_NAME>
2-amino-2-[2-(4-octylphenyl)ethyl]propane-1,3-diol

> <PUBCHEM_IUPAC_CAS_NAME>
2-amino-2-[2-(4-octylphenyl)ethyl]propane-1,3-diol

> <PUBCHEM_IUPAC_NAME_MARKUP>
2-amino-2-[2-(4-octylphenyl)ethyl]propane-1,3-diol

> <PUBCHEM_IUPAC_NAME>
2-amino-2-[2-(4-octylphenyl)ethyl]propane-1,3-diol

> <PUBCHEM_IUPAC_SYSTEMATIC_NAME>
2-azanyl-2-[2-(4-octylphenyl)ethyl]propane-1,3-diol

> <PUBCHEM_IUPAC_TRADITIONAL_NAME>
2-amino-2-[2-(4-octylphenyl)ethyl]propane-1,3-diol

> <PUBCHEM_IUPAC_INCHI>
InChI=1S/C19H33NO2/c1-2-3-4-5-6-7-8-17-9-11-18(12-10-17)13-14-19(20,15-21)16-22/h9-12,21-22H,2-8,13-16,20H2,1H3

> <PUBCHEM_IUPAC_INCHIKEY>
KKGQTZUTZRNORY-UHFFFAOYSA-N

> <PUBCHEM_XLOGP3_AA>
4.2

> <PUBCHEM_EXACT_MASS>
307.251129295

> <PUBCHEM_MOLECULAR_FORMULA>
C19H33NO2

> <PUBCHEM_MOLECULAR_WEIGHT>
307.5

> <PUBCHEM_OPENEYE_CAN_SMILES>
CCCCCCCCC1=CC=C(C=C1)CCC(CO)(CO)N

> <PUBCHEM_OPENEYE_ISO_SMILES>
CCCCCCCCC1=CC=C(C=C1)CCC(CO)(CO)N

> <PUBCHEM_CACTVS_TPSA>
66.5

> <PUBCHEM_MONOISOTOPIC_WEIGHT>
307.251129295

> <PUBCHEM_TOTAL_CHARGE>
0

> <PUBCHEM_HEAVY_ATOM_COUNT>
22

> <PUBCHEM_ATOM_DEF_STEREO_COUNT>
0

> <PUBCHEM_ATOM_UDEF_STEREO_COUNT>
0

> <PUBCHEM_BOND_DEF_STEREO_COUNT>
0

> <PUBCHEM_BOND_UDEF_STEREO_COUNT>
0

> <PUBCHEM_ISOTOPIC_ATOM_COUNT>
0

> <PUBCHEM_COMPONENT_COUNT>
1

> <PUBCHEM_CACTVS_TAUTO_COUNT>
-1

> <PUBCHEM_COORDINATE_TYPE>
1
5
255

> <PUBCHEM_BONDANNOTATIONS>
12  17  8
12  18  8
15  19  8
15  20  8
17  19  8
18  20  8

$$$$
197020
  -OEChem-03012215082D

 31 32  0     1  0  0  0  0  0999 V2000
    5.0298   -1.6907    0.0000 O   0  0  0  0  0  0  0  0  0  0  0  0
    2.4608   -1.3816    0.0000 O   0  0  0  0  0  0  0  0  0  0  0  0
    3.1330   -3.4507    0.0000 O   0  0  0  0  0  0  0  0  0  0  0  0
    6.3031   -3.3462    0.0000 O   0  0  0  0  0  0  0  0  0  0  0  0
    5.9529   -0.1029    0.0000 O   0  0  0  0  0  0  0  0  0  0  0  0
    3.3548    3.3971    0.0000 O   0  0  0  0  0  0  0  0  0  0  0  0
    4.2208   -0.1029    0.0000 N   0  0  0  0  0  0  0  0  0  0  0  0
    5.0868    1.3971    0.0000 N   0  0  0  0  0  0  0  0  0  0  0  0
    4.2208    2.8971    0.0000 N   0  0  0  0  0  0  0  0  0  0  0  0
    3.4118   -1.6907    0.0000 C   0  0  2  0  0  0  0  0  0  0  0  0
    3.7208   -2.6417    0.0000 C   0  0  1  0  0  0  0  0  0  0  0  0
    4.2208   -1.1029    0.0000 C   0  0  1  0  0  0  0  0  0  0  0  0
    4.7208   -2.6417    0.0000 C   0  0  1  0  0  0  0  0  0  0  0  0
    5.3086   -3.4507    0.0000 C   0  0  0  0  0  0  0  0  0  0  0  0
    3.3548    0.3971    0.0000 C   0  0  0  0  0  0  0  0  0  0  0  0
    5.0868    0.3971    0.0000 C   0  0  0  0  0  0  0  0  0  0  0  0
    3.3548    1.3971    0.0000 C   0  0  0  0  0  0  0  0  0  0  0  0
    4.2208    1.8971    0.0000 C   0  0  0  0  0  0  0  0  0  0  0  0
    3.3148   -1.0783    0.0000 H   0  0  0  0  0  0  0  0  0  0  0  0
    3.1085   -2.5447    0.0000 H   0  0  0  0  0  0  0  0  0  0  0  0
    3.6684   -0.8214    0.0000 H   0  0  0  0  0  0  0  0  0  0  0  0
    5.3332   -2.5447    0.0000 H   0  0  0  0  0  0  0  0  0  0  0  0
    4.7514   -3.7225    0.0000 H   0  0  0  0  0  0  0  0  0  0  0  0
    5.4795   -4.0467    0.0000 H   0  0  0  0  0  0  0  0  0  0  0  0
    2.0000   -1.7965    0.0000 H   0  0  0  0  0  0  0  0  0  0  0  0
    3.3852   -4.0171    0.0000 H   0  0  0  0  0  0  0  0  0  0  0  0
    2.8179    0.0871    0.0000 H   0  0  0  0  0  0  0  0  0  0  0  0
    6.6676   -3.8478    0.0000 H   0  0  0  0  0  0  0  0  0  0  0  0
    2.8179    1.7071    0.0000 H   0  0  0  0  0  0  0  0  0  0  0  0
    4.7578    3.2071    0.0000 H   0  0  0  0  0  0  0  0  0  0  0  0
    3.3548    4.0171    0.0000 H   0  0  0  0  0  0  0  0  0  0  0  0
  1 12  1  0  0  0  0
  1 13  1  0  0  0  0
 10  2  1  1  0  0  0
  2 25  1  0  0  0  0
 11  3  1  1  0  0  0
  3 26  1  0  0  0  0
  4 14  1  0  0  0  0
  4 28  1  0  0  0  0
  5 16  2  0  0  0  0
  6  9  1  0  0  0  0
  6 31  1  0  0  0  0
 12  7  1  6  0  0  0
  7 15  1  0  0  0  0
  7 16  1  0  0  0  0
  8 16  1  0  0  0  0
  8 18  2  0  0  0  0
  9 18  1  0  0  0  0
  9 30  1  0  0  0  0
 10 11  1  0  0  0  0
 10 12  1  0  0  0  0
 10 19  1  0  0  0  0
 11 13  1  0  0  0  0
 11 20  1  0  0  0  0
 12 21  1  0  0  0  0
 13 14  1  6  0  0  0
 13 22  1  0  0  0  0
 14 23  1  0  0  0  0
 14 24  1  0  0  0  0
 15 17  2  0  0  0  0
 15 27  1  0  0  0  0
 17 18  1  0  0  0  0
 17 29  1  0  0  0  0
M  END
> <PUBCHEM_COMPOUND_CID>
197020

> <PUBCHEM_COMPOUND_CANONICALIZED>
1

> <PUBCHEM_CACTVS_COMPLEXITY>
398

> <PUBCHEM_CACTVS_HBOND_ACCEPTOR>
6

> <PUBCHEM_CACTVS_HBOND_DONOR>
5

> <PUBCHEM_CACTVS_ROTATABLE_BOND>
3

> <PUBCHEM_CACTVS_SUBSKEYS>
AAADccBzOAAAAAAAAAAAAAAAAAAAASAAAAAgAAAAAAAAAAAAAAAAHgAUCAAACBThgAYBAANQBgCoACJmdACAAAEAAgAoAAAYABCDEAIAgAAOQAAHFgITAADwMAIAAAAAAAAAAAAAAAAAAAAAAAAAAAAAAA==

> <PUBCHEM_IUPAC_OPENEYE_NAME>
1-[(2R,3R,4S,5R)-3,4-dihydroxy-5-(hydroxymethyl)tetrahydrofuran-2-yl]-4-(hydroxyamino)pyrimidin-2-one

> <PUBCHEM_IUPAC_CAS_NAME>
1-[(2R,3R,4S,5R)-3,4-dihydroxy-5-(hydroxymethyl)-2-oxolanyl]-4-(hydroxyamino)-2-pyrimidinone

> <PUBCHEM_IUPAC_NAME_MARKUP>
1-[(2<I>R</I>,3<I>R</I>,4<I>S</I>,5<I>R</I>)-3,4-dihydroxy-5-(hydroxymethyl)oxolan-2-yl]-4-(hydroxyamino)pyrimidin-2-one

> <PUBCHEM_IUPAC_NAME>
1-[(2R,3R,4S,5R)-3,4-dihydroxy-5-(hydroxymethyl)oxolan-2-yl]-4-(hydroxyamino)pyrimidin-2-one

> <PUBCHEM_IUPAC_SYSTEMATIC_NAME>
1-[(2R,3R,4S,5R)-5-(hydroxymethyl)-3,4-bis(oxidanyl)oxolan-2-yl]-4-(oxidanylamino)pyrimidin-2-one

> <PUBCHEM_IUPAC_TRADITIONAL_NAME>
1-[(2R,3R,4S,5R)-3,4-dihydroxy-5-methylol-tetrahydrofuran-2-yl]-4-(hydroxyamino)pyrimidin-2-one

> <PUBCHEM_IUPAC_INCHI>
InChI=1S/C9H13N3O6/c13-3-4-6(14)7(15)8(18-4)12-2-1-5(11-17)10-9(12)16/h1-2,4,6-8,13-15,17H,3H2,(H,10,11,16)/t4-,6-,7-,8-/m1/s1

> <PUBCHEM_IUPAC_INCHIKEY>
XCUAIINAJCDIPM-XVFCMESISA-N

> <PUBCHEM_XLOGP3>
-2.2

> <PUBCHEM_EXACT_MASS>
259.08043514

> <PUBCHEM_MOLECULAR_FORMULA>
C9H13N3O6

> <PUBCHEM_MOLECULAR_WEIGHT>
259.22

> <PUBCHEM_OPENEYE_CAN_SMILES>
C1=CN(C(=O)N=C1NO)C2C(C(C(O2)CO)O)O

> <PUBCHEM_OPENEYE_ISO_SMILES>
C1=CN(C(=O)N=C1NO)[C@H]2[C@@H]([C@@H]([C@H](O2)CO)O)O

> <PUBCHEM_CACTVS_TPSA>
135

> <PUBCHEM_MONOISOTOPIC_WEIGHT>
259.08043514

> <PUBCHEM_TOTAL_CHARGE>
0

> <PUBCHEM_HEAVY_ATOM_COUNT>
18

> <PUBCHEM_ATOM_DEF_STEREO_COUNT>
4

> <PUBCHEM_ATOM_UDEF_STEREO_COUNT>
0

> <PUBCHEM_BOND_DEF_STEREO_COUNT>
0

> <PUBCHEM_BOND_UDEF_STEREO_COUNT>
0

> <PUBCHEM_ISOTOPIC_ATOM_COUNT>
0

> <PUBCHEM_COMPONENT_COUNT>
1

> <PUBCHEM_CACTVS_TAUTO_COUNT>
5

> <PUBCHEM_COORDINATE_TYPE>
1
5
255

> <PUBCHEM_BONDANNOTATIONS>
13  14  6
15  17  8
17  18  8
10  2  5
11  3  5
12  7  6
7  15  8
7  16  8
8  16  8
8  18  8

$$$$
492405
  -OEChem-03012215082D

 15 15  0     0  0  0  0  0  0999 V2000
    6.3301    0.6550    0.0000 F   0  0  0  0  0  0  0  0  0  0  0  0
    2.8660   -1.3450    0.0000 O   0  0  0  0  0  0  0  0  0  0  0  0
    2.0000    0.1550    0.0000 O   0  0  0  0  0  0  0  0  0  0  0  0
    4.5981   -1.3450    0.0000 N   0  0  0  0  0  0  0  0  0  0  0  0
    4.5981    0.6550    0.0000 N   0  0  0  0  0  0  0  0  0  0  0  0
    2.8660    1.6550    0.0000 N   0  0  0  0  0  0  0  0  0  0  0  0
    3.7320    0.1550    0.0000 C   0  0  0  0  0  0  0  0  0  0  0  0
    3.7320   -0.8450    0.0000 C   0  0  0  0  0  0  0  0  0  0  0  0
    5.4641   -0.8450    0.0000 C   0  0  0  0  0  0  0  0  0  0  0  0
    5.4641    0.1550    0.0000 C   0  0  0  0  0  0  0  0  0  0  0  0
    2.8660    0.6550    0.0000 C   0  0  0  0  0  0  0  0  0  0  0  0
    4.5981   -1.9650    0.0000 H   0  0  0  0  0  0  0  0  0  0  0  0
    6.0010   -1.1550    0.0000 H   0  0  0  0  0  0  0  0  0  0  0  0
    2.3291    1.9650    0.0000 H   0  0  0  0  0  0  0  0  0  0  0  0
    3.4030    1.9650    0.0000 H   0  0  0  0  0  0  0  0  0  0  0  0
  1 10  1  0  0  0  0
  2  8  2  0  0  0  0
  3 11  2  0  0  0  0
  4  8  1  0  0  0  0
  4  9  1  0  0  0  0
  4 12  1  0  0  0  0
  5  7  2  0  0  0  0
  5 10  1  0  0  0  0
  6 11  1  0  0  0  0
  6 14  1  0  0  0  0
  6 15  1  0  0  0  0
  7  8  1  0  0  0  0
  7 11  1  0  0  0  0
  9 10  2  0  0  0  0
  9 13  1  0  0  0  0
M  END
> <PUBCHEM_COMPOUND_CID>
492405

> <PUBCHEM_COMPOUND_CANONICALIZED>
1

> <PUBCHEM_CACTVS_COMPLEXITY>
282

> <PUBCHEM_CACTVS_HBOND_ACCEPTOR>
4

> <PUBCHEM_CACTVS_HBOND_DONOR>
2

> <PUBCHEM_CACTVS_ROTATABLE_BOND>
1

> <PUBCHEM_CACTVS_SUBSKEYS>
AAADcYBjMQAAAAAAAAAAAAAAAAAAAAAAAAAgAAAAAAAAAAAAAAAAHwAQAAAACAjBgAQAAALAAACoAQE2VAAAAAAAAgAAAIEIAAAAAAgIQAAEAAAAAgAAAAAAAAAAAAAAAAAAAAAAAAAAAAAAAAAAAAAAAA==

> <PUBCHEM_IUPAC_OPENEYE_NAME>
5-fluoro-2-oxo-1H-pyrazine-3-carboxamide

> <PUBCHEM_IUPAC_CAS_NAME>
5-fluoro-2-oxo-1H-pyrazine-3-carboxamide

> <PUBCHEM_IUPAC_NAME_MARKUP>
5-fluoro-2-oxo-1<I>H</I>-pyrazine-3-carboxamide

> <PUBCHEM_IUPAC_NAME>
5-fluoro-2-oxo-1H-pyrazine-3-carboxamide

> <PUBCHEM_IUPAC_SYSTEMATIC_NAME>
5-fluoranyl-2-oxidanylidene-1H-pyrazine-3-carboxamide

> <PUBCHEM_IUPAC_TRADITIONAL_NAME>
5-fluoro-2-keto-1H-pyrazine-3-carboxamide

> <PUBCHEM_IUPAC_INCHI>
InChI=1S/C5H4FN3O2/c6-2-1-8-5(11)3(9-2)4(7)10/h1H,(H2,7,10)(H,8,11)

> <PUBCHEM_IUPAC_INCHIKEY>
ZCGNOVWYSGBHAU-UHFFFAOYSA-N

> <PUBCHEM_XLOGP3_AA>
-0.6

> <PUBCHEM_EXACT_MASS>
157.02875454

> <PUBCHEM_MOLECULAR_FORMULA>
C5H4FN3O2

> <PUBCHEM_MOLECULAR_WEIGHT>
157.10

> <PUBCHEM_OPENEYE_CAN_SMILES>
C1=C(N=C(C(=O)N1)C(=O)N)F

> <PUBCHEM_OPENEYE_ISO_SMILES>
C1=C(N=C(C(=O)N1)C(=O)N)F

> <PUBCHEM_CACTVS_TPSA>
84.6

> <PUBCHEM_MONOISOTOPIC_WEIGHT>
157.02875454

> <PUBCHEM_TOTAL_CHARGE>
0

> <PUBCHEM_HEAVY_ATOM_COUNT>
11

> <PUBCHEM_ATOM_DEF_STEREO_COUNT>
0

> <PUBCHEM_ATOM_UDEF_STEREO_COUNT>
0

> <PUBCHEM_BOND_DEF_STEREO_COUNT>
0

> <PUBCHEM_BOND_UDEF_STEREO_COUNT>
0

> <PUBCHEM_ISOTOPIC_ATOM_COUNT>
0

> <PUBCHEM_COMPONENT_COUNT>
1

> <PUBCHEM_CACTVS_TAUTO_COUNT>
7

> <PUBCHEM_COORDINATE_TYPE>
1
5
255

> <PUBCHEM_BONDANNOTATIONS>
4  8  8
4  9  8
5  10  8
5  7  8
7  8  8
9  10  8

$$$$
447043
  -OEChem-03012215082D

124126  0     1  0  0  0  0  0999 V2000
    7.5612   -1.6208    0.0000 O   0  0  0  0  0  0  0  0  0  0  0  0
    5.9331    0.6200    0.0000 O   0  0  0  0  0  0  0  0  0  0  0  0
    8.6538   -1.9974    0.0000 O   0  0  0  0  0  0  0  0  0  0  0  0
    5.8291   -1.6208    0.0000 O   0  0  0  0  0  0  0  0  0  0  0  0
    4.7742    1.9071    0.0000 O   0  0  0  0  0  0  0  0  0  0  0  0
    8.0612    3.4106    0.0000 O   0  0  0  0  0  0  0  0  0  0  0  0
    2.3097    0.3610    0.0000 O   0  0  0  0  0  0  0  0  0  0  0  0
    7.5612   -3.6208    0.0000 O   0  0  0  0  0  0  0  0  0  0  0  0
    2.1289    1.8560    0.0000 O   0  0  0  0  0  0  0  0  0  0  0  0
   10.0591    4.6137    0.0000 O   0  0  0  0  0  0  0  0  0  0  0  0
   11.5419    3.8582    0.0000 O   0  0  0  0  0  0  0  0  0  0  0  0
    6.5090    3.3292    0.0000 O   0  0  0  0  0  0  0  0  0  0  0  0
   11.6685    1.3279    0.0000 N   0  0  3  0  0  0  0  0  0  0  0  0
    5.8291   -4.6208    0.0000 N   0  0  0  0  0  0  0  0  0  0  0  0
    8.0612   -0.7548    0.0000 C   0  0  2  0  0  0  0  0  0  0  0  0
    7.3180   -0.0857    0.0000 C   0  0  2  0  0  0  0  0  0  0  0  0
    9.0122   -1.0638    0.0000 C   0  0  1  0  0  0  0  0  0  0  0  0
    6.9113    0.8279    0.0000 C   0  0  1  0  0  0  0  0  0  0  0  0
   10.0067   -0.9593    0.0000 C   0  0  0  0  0  0  0  0  0  0  0  0
   10.8728   -0.4593    0.0000 C   0  0  2  0  0  0  0  0  0  0  0  0
    6.9113    1.8279    0.0000 C   0  0  2  0  0  0  0  0  0  0  0  0
    6.6951   -2.1208    0.0000 C   0  0  2  0  0  0  0  0  0  0  0  0
    6.5090   -0.6735    0.0000 C   0  0  0  0  0  0  0  0  0  0  0  0
    4.9821    0.9290    0.0000 C   0  0  2  0  0  0  0  0  0  0  0  0
    9.6415   -1.8410    0.0000 C   0  0  0  0  0  0  0  0  0  0  0  0
    3.2879    0.5689    0.0000 C   0  0  2  0  0  0  0  0  0  0  0  0
    6.6951   -3.1208    0.0000 C   0  0  1  0  0  0  0  0  0  0  0  0
   11.4605    0.3497    0.0000 C   0  0  0  0  0  0  0  0  0  0  0  0
    5.8291   -3.6208    0.0000 C   0  0  2  0  0  0  0  0  0  0  0  0
    4.2389    0.2599    0.0000 C   0  0  0  0  0  0  0  0  0  0  0  0
    3.0800    1.5470    0.0000 C   0  0  2  0  0  0  0  0  0  0  0  0
   11.4605    2.3060    0.0000 C   0  0  1  0  0  0  0  0  0  0  0  0
   10.0067    3.6150    0.0000 C   0  0  1  0  0  0  0  0  0  0  0  0
    4.9631   -3.1208    0.0000 C   0  0  0  0  0  0  0  0  0  0  0  0
   10.8728    3.1150    0.0000 C   0  0  2  0  0  0  0  0  0  0  0  0
    3.8231    2.2161    0.0000 C   0  0  2  0  0  0  0  0  0  0  0  0
    4.9631   -2.1208    0.0000 C   0  0  1  0  0  0  0  0  0  0  0  0
    9.0122    3.7196    0.0000 C   0  0  1  0  0  0  0  0  0  0  0  0
   11.5419   -1.2024    0.0000 C   0  0  0  0  0  0  0  0  0  0  0  0
    7.3180    2.7414    0.0000 C   0  0  0  0  0  0  0  0  0  0  0  0
    5.9331    2.0358    0.0000 C   0  0  0  0  0  0  0  0  0  0  0  0
    2.9789   -0.3822    0.0000 C   0  0  0  0  0  0  0  0  0  0  0  0
   12.3741    2.7128    0.0000 C   0  0  0  0  0  0  0  0  0  0  0  0
   10.8054    4.2168    0.0000 C   0  0  0  0  0  0  0  0  0  0  0  0
    8.9077    4.7141    0.0000 C   0  0  0  0  0  0  0  0  0  0  0  0
   12.6685    1.3279    0.0000 C   0  0  0  0  0  0  0  0  0  0  0  0
    3.6152    3.1943    0.0000 C   0  0  0  0  0  0  0  0  0  0  0  0
    4.0971   -1.6208    0.0000 C   0  0  0  0  0  0  0  0  0  0  0  0
    4.9631   -5.1208    0.0000 C   0  0  0  0  0  0  0  0  0  0  0  0
    6.6951   -5.1208    0.0000 C   0  0  0  0  0  0  0  0  0  0  0  0
    7.9941    5.1208    0.0000 C   0  0  0  0  0  0  0  0  0  0  0  0
    2.0007   -0.5900    0.0000 C   0  0  0  0  0  0  0  0  0  0  0  0
    7.4488   -0.8518    0.0000 H   0  0  0  0  0  0  0  0  0  0  0  0
    6.7191    0.0748    0.0000 H   0  0  0  0  0  0  0  0  0  0  0  0
    6.6298    0.2755    0.0000 H   0  0  0  0  0  0  0  0  0  0  0  0
    9.8358   -1.5553    0.0000 H   0  0  0  0  0  0  0  0  0  0  0  0
    9.8151   -0.3696    0.0000 H   0  0  0  0  0  0  0  0  0  0  0  0
   11.4919   -0.4268    0.0000 H   0  0  0  0  0  0  0  0  0  0  0  0
    6.6298    2.3803    0.0000 H   0  0  0  0  0  0  0  0  0  0  0  0
    6.6951   -1.5008    0.0000 H   0  0  0  0  0  0  0  0  0  0  0  0
    6.1446   -0.1719    0.0000 H   0  0  0  0  0  0  0  0  0  0  0  0
    6.0074   -1.0379    0.0000 H   0  0  0  0  0  0  0  0  0  0  0  0
    6.8734   -1.1750    0.0000 H   0  0  0  0  0  0  0  0  0  0  0  0
    5.1110    0.3225    0.0000 H   0  0  0  0  0  0  0  0  0  0  0  0
    9.1597   -2.2311    0.0000 H   0  0  0  0  0  0  0  0  0  0  0  0
   10.0317   -2.3228    0.0000 H   0  0  0  0  0  0  0  0  0  0  0  0
   10.1234   -1.4508    0.0000 H   0  0  0  0  0  0  0  0  0  0  0  0
    6.6951   -3.7408    0.0000 H   0  0  0  0  0  0  0  0  0  0  0  0
   11.7891   -0.1761    0.0000 H   0  0  0  0  0  0  0  0  0  0  0  0
   10.8942    0.6019    0.0000 H   0  0  0  0  0  0  0  0  0  0  0  0
    5.2922   -3.9308    0.0000 H   0  0  0  0  0  0  0  0  0  0  0  0
    3.9479   -0.2876    0.0000 H   0  0  0  0  0  0  0  0  0  0  0  0
    4.7275   -0.1219    0.0000 H   0  0  0  0  0  0  0  0  0  0  0  0
    2.6192    1.1322    0.0000 H   0  0  0  0  0  0  0  0  0  0  0  0
   12.0130    2.0246    0.0000 H   0  0  0  0  0  0  0  0  0  0  0  0
    4.3525   -3.0132    0.0000 H   0  0  0  0  0  0  0  0  0  0  0  0
    4.7510   -3.7034    0.0000 H   0  0  0  0  0  0  0  0  0  0  0  0
   11.4919    3.0826    0.0000 H   0  0  0  0  0  0  0  0  0  0  0  0
    4.2839    2.6310    0.0000 H   0  0  0  0  0  0  0  0  0  0  0  0
    4.9631   -1.5008    0.0000 H   0  0  0  0  0  0  0  0  0  0  0  0
    8.4922    4.0572    0.0000 H   0  0  0  0  0  0  0  0  0  0  0  0
    8.0415   -2.0944    0.0000 H   0  0  0  0  0  0  0  0  0  0  0  0
   11.0811   -1.6173    0.0000 H   0  0  0  0  0  0  0  0  0  0  0  0
   11.9568   -1.6632    0.0000 H   0  0  0  0  0  0  0  0  0  0  0  0
   12.0026   -0.7876    0.0000 H   0  0  0  0  0  0  0  0  0  0  0  0
    6.0620    2.6422    0.0000 H   0  0  0  0  0  0  0  0  0  0  0  0
    5.3267    2.1647    0.0000 H   0  0  0  0  0  0  0  0  0  0  0  0
    5.8042    1.4293    0.0000 H   0  0  0  0  0  0  0  0  0  0  0  0
    2.3892   -0.1906    0.0000 H   0  0  0  0  0  0  0  0  0  0  0  0
    2.7873   -0.9718    0.0000 H   0  0  0  0  0  0  0  0  0  0  0  0
    3.5685   -0.5738    0.0000 H   0  0  0  0  0  0  0  0  0  0  0  0
   12.6263    2.1464    0.0000 H   0  0  0  0  0  0  0  0  0  0  0  0
   12.9405    2.9649    0.0000 H   0  0  0  0  0  0  0  0  0  0  0  0
   12.1219    3.2792    0.0000 H   0  0  0  0  0  0  0  0  0  0  0  0
   11.1785    3.7217    0.0000 H   0  0  0  0  0  0  0  0  0  0  0  0
   11.3005    4.5900    0.0000 H   0  0  0  0  0  0  0  0  0  0  0  0
   10.4322    4.7120    0.0000 H   0  0  0  0  0  0  0  0  0  0  0  0
    9.5262    4.6708    0.0000 H   0  0  0  0  0  0  0  0  0  0  0  0
    9.0577    5.3157    0.0000 H   0  0  0  0  0  0  0  0  0  0  0  0
   12.6685    0.7079    0.0000 H   0  0  0  0  0  0  0  0  0  0  0  0
   13.2885    1.3279    0.0000 H   0  0  0  0  0  0  0  0  0  0  0  0
   12.6685    1.9479    0.0000 H   0  0  0  0  0  0  0  0  0  0  0  0
    4.2216    3.3232    0.0000 H   0  0  0  0  0  0  0  0  0  0  0  0
    3.4863    3.8007    0.0000 H   0  0  0  0  0  0  0  0  0  0  0  0
    3.0087    3.0654    0.0000 H   0  0  0  0  0  0  0  0  0  0  0  0
    4.4071   -1.0839    0.0000 H   0  0  0  0  0  0  0  0  0  0  0  0
    3.5601   -1.3108    0.0000 H   0  0  0  0  0  0  0  0  0  0  0  0
    3.7871   -2.1578    0.0000 H   0  0  0  0  0  0  0  0  0  0  0  0
    8.0981   -3.3108    0.0000 H   0  0  0  0  0  0  0  0  0  0  0  0
    2.0000    2.4625    0.0000 H   0  0  0  0  0  0  0  0  0  0  0  0
    9.5391    4.9514    0.0000 H   0  0  0  0  0  0  0  0  0  0  0  0
   12.1483    3.7293    0.0000 H   0  0  0  0  0  0  0  0  0  0  0  0
    4.6531   -4.5839    0.0000 H   0  0  0  0  0  0  0  0  0  0  0  0
    4.4262   -5.4308    0.0000 H   0  0  0  0  0  0  0  0  0  0  0  0
    5.2731   -5.6578    0.0000 H   0  0  0  0  0  0  0  0  0  0  0  0
    6.3851   -5.6578    0.0000 H   0  0  0  0  0  0  0  0  0  0  0  0
    7.2321   -5.4308    0.0000 H   0  0  0  0  0  0  0  0  0  0  0  0
    7.0051   -4.5839    0.0000 H   0  0  0  0  0  0  0  0  0  0  0  0
    8.2463    5.6872    0.0000 H   0  0  0  0  0  0  0  0  0  0  0  0
    7.4277    5.3730    0.0000 H   0  0  0  0  0  0  0  0  0  0  0  0
    7.7420    4.5544    0.0000 H   0  0  0  0  0  0  0  0  0  0  0  0
    1.4111   -0.3984    0.0000 H   0  0  0  0  0  0  0  0  0  0  0  0
    1.8091   -1.1796    0.0000 H   0  0  0  0  0  0  0  0  0  0  0  0
    2.5904   -0.7816    0.0000 H   0  0  0  0  0  0  0  0  0  0  0  0
 15  1  1  6  0  0  0
 22  1  1  1  0  0  0
 18  2  1  6  0  0  0
 24  2  1  1  0  0  0
 17  3  1  1  0  0  0
  3 82  1  0  0  0  0
  4 22  1  0  0  0  0
  4 37  1  0  0  0  0
  5 24  1  0  0  0  0
  5 36  1  0  0  0  0
  6 38  1  0  0  0  0
  6 40  1  0  0  0  0
 26  7  1  1  0  0  0
  7 52  1  0  0  0  0
 27  8  1  6  0  0  0
  8109  1  0  0  0  0
 31  9  1  1  0  0  0
  9110  1  0  0  0  0
 33 10  1  1  0  0  0
 10111  1  0  0  0  0
 35 11  1  6  0  0  0
 11112  1  0  0  0  0
 12 40  2  0  0  0  0
 13 28  1  0  0  0  0
 13 32  1  0  0  0  0
 13 46  1  0  0  0  0
 29 14  1  1  0  0  0
 14 49  1  0  0  0  0
 14 50  1  0  0  0  0
 15 16  1  0  0  0  0
 15 17  1  0  0  0  0
 15 53  1  0  0  0  0
 16 18  1  0  0  0  0
 16 23  1  1  0  0  0
 16 54  1  0  0  0  0
 17 19  1  0  0  0  0
 17 25  1  0  0  0  0
 18 21  1  0  0  0  0
 18 55  1  0  0  0  0
 19 20  1  0  0  0  0
 19 56  1  0  0  0  0
 19 57  1  0  0  0  0
 20 28  1  0  0  0  0
 20 39  1  6  0  0  0
 20 58  1  0  0  0  0
 21 40  1  0  0  0  0
 21 41  1  1  0  0  0
 21 59  1  0  0  0  0
 22 27  1  0  0  0  0
 22 60  1  0  0  0  0
 23 61  1  0  0  0  0
 23 62  1  0  0  0  0
 23 63  1  0  0  0  0
 24 30  1  0  0  0  0
 24 64  1  0  0  0  0
 25 65  1  0  0  0  0
 25 66  1  0  0  0  0
 25 67  1  0  0  0  0
 26 30  1  0  0  0  0
 26 31  1  0  0  0  0
 26 42  1  0  0  0  0
 27 29  1  0  0  0  0
 27 68  1  0  0  0  0
 28 69  1  0  0  0  0
 28 70  1  0  0  0  0
 29 34  1  0  0  0  0
 29 71  1  0  0  0  0
 30 72  1  0  0  0  0
 30 73  1  0  0  0  0
 31 36  1  0  0  0  0
 31 74  1  0  0  0  0
 32 35  1  0  0  0  0
 32 43  1  1  0  0  0
 32 75  1  0  0  0  0
 33 35  1  0  0  0  0
 33 38  1  0  0  0  0
 33 44  1  0  0  0  0
 34 37  1  0  0  0  0
 34 76  1  0  0  0  0
 34 77  1  0  0  0  0
 35 78  1  0  0  0  0
 36 47  1  6  0  0  0
 36 79  1  0  0  0  0
 37 48  1  1  0  0  0
 37 80  1  0  0  0  0
 38 45  1  6  0  0  0
 38 81  1  0  0  0  0
 39 83  1  0  0  0  0
 39 84  1  0  0  0  0
 39 85  1  0  0  0  0
 41 86  1  0  0  0  0
 41 87  1  0  0  0  0
 41 88  1  0  0  0  0
 42 89  1  0  0  0  0
 42 90  1  0  0  0  0
 42 91  1  0  0  0  0
 43 92  1  0  0  0  0
 43 93  1  0  0  0  0
 43 94  1  0  0  0  0
 44 95  1  0  0  0  0
 44 96  1  0  0  0  0
 44 97  1  0  0  0  0
 45 51  1  0  0  0  0
 45 98  1  0  0  0  0
 45 99  1  0  0  0  0
 46100  1  0  0  0  0
 46101  1  0  0  0  0
 46102  1  0  0  0  0
 47103  1  0  0  0  0
 47104  1  0  0  0  0
 47105  1  0  0  0  0
 48106  1  0  0  0  0
 48107  1  0  0  0  0
 48108  1  0  0  0  0
 49113  1  0  0  0  0
 49114  1  0  0  0  0
 49115  1  0  0  0  0
 50116  1  0  0  0  0
 50117  1  0  0  0  0
 50118  1  0  0  0  0
 51119  1  0  0  0  0
 51120  1  0  0  0  0
 51121  1  0  0  0  0
 52122  1  0  0  0  0
 52123  1  0  0  0  0
 52124  1  0  0  0  0
M  END
> <PUBCHEM_COMPOUND_CID>
447043

> <PUBCHEM_COMPOUND_CANONICALIZED>
1

> <PUBCHEM_CACTVS_COMPLEXITY>
1150

> <PUBCHEM_CACTVS_HBOND_ACCEPTOR>
14

> <PUBCHEM_CACTVS_HBOND_DONOR>
5

> <PUBCHEM_CACTVS_ROTATABLE_BOND>
7

> <PUBCHEM_CACTVS_SUBSKEYS>
AAADcfB/PAAAAAAAAAAAAAAAAAAAAAAAAAAkSAAAAAAAAAAAAAAAHgAACAAADXzxgAcCCAMABgAIAACQCAAAAAAAAAAAAAEIAAATEBYAgAAmQAAHIACXAAH4/P7OAAAAAAAAAAAAAAAAAAAAAAAAAAAAAA==

> <PUBCHEM_IUPAC_OPENEYE_NAME>
(2R,3S,4R,5R,8R,10R,11R,12S,13S,14R)-11-[(2S,3R,4S,6R)-4-(dimethylamino)-3-hydroxy-6-methyl-tetrahydropyran-2-yl]oxy-2-ethyl-3,4,10-trihydroxy-13-[(2R,4R,5S,6S)-5-hydroxy-4-methoxy-4,6-dimethyl-tetrahydropyran-2-yl]oxy-3,5,6,8,10,12,14-heptamethyl-1-oxa-6-azacyclopentadecan-15-one

> <PUBCHEM_IUPAC_CAS_NAME>
(2R,3S,4R,5R,8R,10R,11R,12S,13S,14R)-11-[[(2S,3R,4S,6R)-4-(dimethylamino)-3-hydroxy-6-methyl-2-oxanyl]oxy]-2-ethyl-3,4,10-trihydroxy-13-[[(2R,4R,5S,6S)-5-hydroxy-4-methoxy-4,6-dimethyl-2-oxanyl]oxy]-3,5,6,8,10,12,14-heptamethyl-1-oxa-6-azacyclopentadecan-15-one

> <PUBCHEM_IUPAC_NAME_MARKUP>
(2<I>R</I>,3<I>S</I>,4<I>R</I>,5<I>R</I>,8<I>R</I>,10<I>R</I>,11<I>R</I>,12<I>S</I>,13<I>S</I>,14<I>R</I>)-11-[(2<I>S</I>,3<I>R</I>,4<I>S</I>,6<I>R</I>)-4-(dimethylamino)-3-hydroxy-6-methyloxan-2-yl]oxy-2-ethyl-3,4,10-trihydroxy-13-[(2<I>R</I>,4<I>R</I>,5<I>S</I>,6<I>S</I>)-5-hydroxy-4-methoxy-4,6-dimethyloxan-2-yl]oxy-3,5,6,8,10,12,14-heptamethyl-1-oxa-6-azacyclopentadecan-15-one

> <PUBCHEM_IUPAC_NAME>
(2R,3S,4R,5R,8R,10R,11R,12S,13S,14R)-11-[(2S,3R,4S,6R)-4-(dimethylamino)-3-hydroxy-6-methyloxan-2-yl]oxy-2-ethyl-3,4,10-trihydroxy-13-[(2R,4R,5S,6S)-5-hydroxy-4-methoxy-4,6-dimethyloxan-2-yl]oxy-3,5,6,8,10,12,14-heptamethyl-1-oxa-6-azacyclopentadecan-15-one

> <PUBCHEM_IUPAC_SYSTEMATIC_NAME>
(2R,3S,4R,5R,8R,10R,11R,12S,13S,14R)-11-[(2S,3R,4S,6R)-4-(dimethylamino)-6-methyl-3-oxidanyl-oxan-2-yl]oxy-2-ethyl-13-[(2R,4R,5S,6S)-4-methoxy-4,6-dimethyl-5-oxidanyl-oxan-2-yl]oxy-3,5,6,8,10,12,14-heptamethyl-3,4,10-tris(oxidanyl)-1-oxa-6-azacyclopentadecan-15-one

> <PUBCHEM_IUPAC_TRADITIONAL_NAME>
(2R,3S,4R,5R,8R,10R,11R,12S,13S,14R)-11-[(2S,3R,4S,6R)-4-(dimethylamino)-3-hydroxy-6-methyl-tetrahydropyran-2-yl]oxy-2-ethyl-3,4,10-trihydroxy-13-[(2R,4R,5S,6S)-5-hydroxy-4-methoxy-4,6-dimethyl-tetrahydropyran-2-yl]oxy-3,5,6,8,10,12,14-heptamethyl-1-oxa-6-azacyclopentadecan-15-one

> <PUBCHEM_IUPAC_INCHI>
InChI=1S/C38H72N2O12/c1-15-27-38(10,46)31(42)24(6)40(13)19-20(2)17-36(8,45)33(52-35-29(41)26(39(11)12)16-21(3)48-35)22(4)30(23(5)34(44)50-27)51-28-18-37(9,47-14)32(43)25(7)49-28/h20-33,35,41-43,45-46H,15-19H2,1-14H3/t20-,21-,22+,23-,24-,25+,26+,27-,28+,29-,30+,31-,32+,33-,35+,36-,37-,38-/m1/s1

> <PUBCHEM_IUPAC_INCHIKEY>
MQTOSJVFKKJCRP-BICOPXKESA-N

> <PUBCHEM_XLOGP3>
4

> <PUBCHEM_EXACT_MASS>
748.50852574

> <PUBCHEM_MOLECULAR_FORMULA>
C38H72N2O12

> <PUBCHEM_MOLECULAR_WEIGHT>
749.0

> <PUBCHEM_OPENEYE_CAN_SMILES>
CCC1C(C(C(N(CC(CC(C(C(C(C(C(=O)O1)C)OC2CC(C(C(O2)C)O)(C)OC)C)OC3C(C(CC(O3)C)N(C)C)O)(C)O)C)C)C)O)(C)O

> <PUBCHEM_OPENEYE_ISO_SMILES>
CC[C@@H]1[C@@]([C@@H]([C@H](N(C[C@@H](C[C@@]([C@@H]([C@H]([C@@H]([C@H](C(=O)O1)C)O[C@H]2C[C@@]([C@H]([C@@H](O2)C)O)(C)OC)C)O[C@H]3[C@@H]([C@H](C[C@H](O3)C)N(C)C)O)(C)O)C)C)C)O)(C)O

> <PUBCHEM_CACTVS_TPSA>
180

> <PUBCHEM_MONOISOTOPIC_WEIGHT>
748.50852574

> <PUBCHEM_TOTAL_CHARGE>
0

> <PUBCHEM_HEAVY_ATOM_COUNT>
52

> <PUBCHEM_ATOM_DEF_STEREO_COUNT>
18

> <PUBCHEM_ATOM_UDEF_STEREO_COUNT>
0

> <PUBCHEM_BOND_DEF_STEREO_COUNT>
0

> <PUBCHEM_BOND_UDEF_STEREO_COUNT>
0

> <PUBCHEM_ISOTOPIC_ATOM_COUNT>
0

> <PUBCHEM_COMPONENT_COUNT>
1

> <PUBCHEM_CACTVS_TAUTO_COUNT>
2

> <PUBCHEM_COORDINATE_TYPE>
1
5
255

> <PUBCHEM_BONDANNOTATIONS>
15  1  6
22  1  5
33  10  5
35  11  6
29  14  5
16  23  5
18  2  6
24  2  5
20  39  6
21  41  5
17  3  5
32  43  5
36  47  6
37  48  5
38  45  6
26  7  5
27  8  6
31  9  5

$$$$
10445549
  -OEChem-03012215082D

 34 36  0     1  0  0  0  0  0999 V2000
    6.7485   -0.2000    0.0000 O   0  0  0  0  0  0  0  0  0  0  0  0
    6.7523    1.9756    0.0000 O   0  0  0  0  0  0  0  0  0  0  0  0
    5.3548    3.3934    0.0000 O   0  0  0  0  0  0  0  0  0  0  0  0
    4.4026    0.8919    0.0000 N   0  0  0  0  0  0  0  0  0  0  0  0
    4.6783   -2.4782    0.0000 N   0  0  0  0  0  0  0  0  0  0  0  0
    2.8660   -0.6734    0.0000 N   0  0  0  0  0  0  0  0  0  0  0  0
    2.0000   -2.1734    0.0000 N   0  0  0  0  0  0  0  0  0  0  0  0
    2.8660   -3.6734    0.0000 N   0  0  0  0  0  0  0  0  0  0  0  0
    4.9889    0.0818    0.0000 C   0  0  2  0  0  0  0  0  0  0  0  0
    5.9405    0.3892    0.0000 C   0  0  1  0  0  0  0  0  0  0  0  0
    4.9917    1.6999    0.0000 C   0  0  1  0  0  0  0  0  0  0  0  0
    5.9422    1.3892    0.0000 C   0  0  1  0  0  0  0  0  0  0  0  0
    4.6783   -0.8687    0.0000 C   0  0  0  0  0  0  0  0  0  0  0  0
    4.6844    2.6514    0.0000 C   0  0  0  0  0  0  0  0  0  0  0  0
    3.7320   -1.1734    0.0000 C   0  0  0  0  0  0  0  0  0  0  0  0
    5.2619   -1.6734    0.0000 C   0  0  0  0  0  0  0  0  0  0  0  0
    3.7320   -2.1734    0.0000 C   0  0  0  0  0  0  0  0  0  0  0  0
    2.8660   -2.6734    0.0000 C   0  0  0  0  0  0  0  0  0  0  0  0
    2.0000   -1.1734    0.0000 C   0  0  0  0  0  0  0  0  0  0  0  0
    5.5889   -0.5202    0.0000 H   0  0  0  0  0  0  0  0  0  0  0  0
    6.4934    0.6697    0.0000 H   0  0  0  0  0  0  0  0  0  0  0  0
    4.3795    1.7979    0.0000 H   0  0  0  0  0  0  0  0  0  0  0  0
    6.4942    1.1068    0.0000 H   0  0  0  0  0  0  0  0  0  0  0  0
    3.7826    0.8929    0.0000 H   0  0  0  0  0  0  0  0  0  0  0  0
    4.3035    3.1407    0.0000 H   0  0  0  0  0  0  0  0  0  0  0  0
    4.1364    2.3613    0.0000 H   0  0  0  0  0  0  0  0  0  0  0  0
    5.8819   -1.6734    0.0000 H   0  0  0  0  0  0  0  0  0  0  0  0
    7.3154    0.0512    0.0000 H   0  0  0  0  0  0  0  0  0  0  0  0
    7.3182    1.7224    0.0000 H   0  0  0  0  0  0  0  0  0  0  0  0
    4.8709   -3.0675    0.0000 H   0  0  0  0  0  0  0  0  0  0  0  0
    5.1642    3.9834    0.0000 H   0  0  0  0  0  0  0  0  0  0  0  0
    1.4631   -0.8634    0.0000 H   0  0  0  0  0  0  0  0  0  0  0  0
    2.3291   -3.9834    0.0000 H   0  0  0  0  0  0  0  0  0  0  0  0
    3.4030   -3.9834    0.0000 H   0  0  0  0  0  0  0  0  0  0  0  0
 10  1  1  1  0  0  0
  1 28  1  0  0  0  0
 12  2  1  1  0  0  0
  2 29  1  0  0  0  0
  3 14  1  0  0  0  0
  3 31  1  0  0  0  0
  4  9  1  0  0  0  0
  4 11  1  0  0  0  0
  4 24  1  0  0  0  0
  5 16  1  0  0  0  0
  5 17  1  0  0  0  0
  5 30  1  0  0  0  0
  6 15  1  0  0  0  0
  6 19  2  0  0  0  0
  7 18  2  0  0  0  0
  7 19  1  0  0  0  0
  8 18  1  0  0  0  0
  8 33  1  0  0  0  0
  8 34  1  0  0  0  0
  9 10  1  0  0  0  0
  9 13  1  0  0  0  0
  9 20  1  1  0  0  0
 10 12  1  0  0  0  0
 10 21  1  0  0  0  0
 11 12  1  0  0  0  0
 11 14  1  6  0  0  0
 11 22  1  0  0  0  0
 12 23  1  0  0  0  0
 13 15  1  0  0  0  0
 13 16  2  0  0  0  0
 14 25  1  0  0  0  0
 14 26  1  0  0  0  0
 15 17  2  0  0  0  0
 16 27  1  0  0  0  0
 17 18  1  0  0  0  0
 19 32  1  0  0  0  0
M  END
> <PUBCHEM_COMPOUND_CID>
10445549

> <PUBCHEM_COMPOUND_CANONICALIZED>
1

> <PUBCHEM_CACTVS_COMPLEXITY>
334

> <PUBCHEM_CACTVS_HBOND_ACCEPTOR>
7

> <PUBCHEM_CACTVS_HBOND_DONOR>
6

> <PUBCHEM_CACTVS_ROTATABLE_BOND>
2

> <PUBCHEM_CACTVS_SUBSKEYS>
AAADccBzsAAAAAAAAAAAAAAAAAAAAWLAAAAsAAAAAAAAAFgB+AAAHgAQCAAADDzhngYt8LbJkgCgAxZnZACCgC0xEKAB2aAoVJiLeOLA2dGUZAhv0APZyCfw0OMOAAAAAAAAAAAAAAAAAAAAAAAAAAAAAA==

> <PUBCHEM_IUPAC_OPENEYE_NAME>
(2S,3S,4R,5R)-2-(4-amino-5H-pyrrolo[3,2-d]pyrimidin-7-yl)-5-(hydroxymethyl)pyrrolidine-3,4-diol

> <PUBCHEM_IUPAC_CAS_NAME>
(2S,3S,4R,5R)-2-(4-amino-5H-pyrrolo[3,2-d]pyrimidin-7-yl)-5-(hydroxymethyl)pyrrolidine-3,4-diol

> <PUBCHEM_IUPAC_NAME_MARKUP>
(2<I>S</I>,3<I>S</I>,4<I>R</I>,5<I>R</I>)-2-(4-amino-5<I>H</I>-pyrrolo[3,2-d]pyrimidin-7-yl)-5-(hydroxymethyl)pyrrolidine-3,4-diol

> <PUBCHEM_IUPAC_NAME>
(2S,3S,4R,5R)-2-(4-amino-5H-pyrrolo[3,2-d]pyrimidin-7-yl)-5-(hydroxymethyl)pyrrolidine-3,4-diol

> <PUBCHEM_IUPAC_SYSTEMATIC_NAME>
(2S,3S,4R,5R)-2-(4-azanyl-5H-pyrrolo[3,2-d]pyrimidin-7-yl)-5-(hydroxymethyl)pyrrolidine-3,4-diol

> <PUBCHEM_IUPAC_TRADITIONAL_NAME>
(2S,3S,4R,5R)-2-(4-amino-5H-pyrrolo[3,2-d]pyrimidin-7-yl)-5-methylol-pyrrolidine-3,4-diol

> <PUBCHEM_IUPAC_INCHI>
InChI=1S/C11H15N5O3/c12-11-8-6(14-3-15-11)4(1-13-8)7-10(19)9(18)5(2-17)16-7/h1,3,5,7,9-10,13,16-19H,2H2,(H2,12,14,15)/t5-,7+,9-,10+/m1/s1

> <PUBCHEM_IUPAC_INCHIKEY>
AMFDITJFBUXZQN-KUBHLMPHSA-N

> <PUBCHEM_XLOGP3_AA>
-2.1

> <PUBCHEM_EXACT_MASS>
265.11748936

> <PUBCHEM_MOLECULAR_FORMULA>
C11H15N5O3

> <PUBCHEM_MOLECULAR_WEIGHT>
265.27

> <PUBCHEM_OPENEYE_CAN_SMILES>
C1=C(C2=C(N1)C(=NC=N2)N)C3C(C(C(N3)CO)O)O

> <PUBCHEM_OPENEYE_ISO_SMILES>
C1=C(C2=C(N1)C(=NC=N2)N)[C@H]3[C@@H]([C@@H]([C@H](N3)CO)O)O

> <PUBCHEM_CACTVS_TPSA>
140

> <PUBCHEM_MONOISOTOPIC_WEIGHT>
265.11748936

> <PUBCHEM_TOTAL_CHARGE>
0

> <PUBCHEM_HEAVY_ATOM_COUNT>
19

> <PUBCHEM_ATOM_DEF_STEREO_COUNT>
4

> <PUBCHEM_ATOM_UDEF_STEREO_COUNT>
0

> <PUBCHEM_BOND_DEF_STEREO_COUNT>
0

> <PUBCHEM_BOND_UDEF_STEREO_COUNT>
0

> <PUBCHEM_ISOTOPIC_ATOM_COUNT>
0

> <PUBCHEM_COMPONENT_COUNT>
1

> <PUBCHEM_CACTVS_TAUTO_COUNT>
5

> <PUBCHEM_COORDINATE_TYPE>
1
5
255

> <PUBCHEM_BONDANNOTATIONS>
10  1  5
11  14  6
13  15  8
13  16  8
15  17  8
17  18  8
12  2  5
5  16  8
5  17  8
6  15  8
6  19  8
7  18  8
7  19  8
9  20  5

$$$$
3113817
  -OEChem-03012215082D

 19 20  0     0  0  0  0  0  0999 V2000
    7.9939   -0.5000    0.0000 S   0  0  0  0  0  0  0  0  0  0  0  0
    4.5981    1.5000    0.0000 O   0  0  0  0  0  0  0  0  0  0  0  0
    2.0000    0.0000    0.0000 O   0  5  0  0  0  0  0  0  0  0  0  0
    2.8660    1.5000    0.0000 O   0  0  0  0  0  0  0  0  0  0  0  0
    5.4641    0.0000    0.0000 N   0  0  0  0  0  0  0  0  0  0  0  0
    6.4103    0.3047    0.0000 N   0  0  0  0  0  0  0  0  0  0  0  0
    6.4103   -1.3047    0.0000 N   0  0  0  0  0  0  0  0  0  0  0  0
    4.5981   -1.5000    0.0000 N   0  0  0  0  0  0  0  0  0  0  0  0
    3.7320   -1.0000    0.0000 N   0  0  0  0  0  0  0  0  0  0  0  0
    2.8660    0.5000    0.0000 N   0  3  0  0  0  0  0  0  0  0  0  0
    5.4641   -1.0000    0.0000 C   0  0  0  0  0  0  0  0  0  0  0  0
    4.5981    0.5000    0.0000 C   0  0  0  0  0  0  0  0  0  0  0  0
    6.9939   -0.5000    0.0000 C   0  0  0  0  0  0  0  0  0  0  0  0
    3.7320    0.0000    0.0000 C   0  0  0  0  0  0  0  0  0  0  0  0
    8.4939   -1.3660    0.0000 C   0  0  0  0  0  0  0  0  0  0  0  0
    6.6029    0.8941    0.0000 H   0  0  0  0  0  0  0  0  0  0  0  0
    7.9570   -1.6760    0.0000 H   0  0  0  0  0  0  0  0  0  0  0  0
    8.8039   -1.9030    0.0000 H   0  0  0  0  0  0  0  0  0  0  0  0
    9.0309   -1.0560    0.0000 H   0  0  0  0  0  0  0  0  0  0  0  0
  1 13  1  0  0  0  0
  1 15  1  0  0  0  0
  2 12  2  0  0  0  0
  3 10  1  0  0  0  0
  4 10  2  0  0  0  0
  5  6  1  0  0  0  0
  5 11  1  0  0  0  0
  5 12  1  0  0  0  0
  6 13  1  0  0  0  0
  6 16  1  0  0  0  0
  7 11  1  0  0  0  0
  7 13  2  0  0  0  0
  8  9  1  0  0  0  0
  8 11  2  0  0  0  0
  9 14  2  0  0  0  0
 10 14  1  0  0  0  0
 12 14  1  0  0  0  0
 15 17  1  0  0  0  0
 15 18  1  0  0  0  0
 15 19  1  0  0  0  0
M  END
> <PUBCHEM_COMPOUND_CID>
3113817

> <PUBCHEM_COMPOUND_CANONICALIZED>
1

> <PUBCHEM_CACTVS_COMPLEXITY>
435

> <PUBCHEM_CACTVS_HBOND_ACCEPTOR>
6

> <PUBCHEM_CACTVS_HBOND_DONOR>
1

> <PUBCHEM_CACTVS_ROTATABLE_BOND>
1

> <PUBCHEM_CACTVS_SUBSKEYS>
AAADcYBjsABAAAAAAAAAAAAAAAAAAQAAAAAgAAAAAAAAAEAAAAAAHgQcAAAAAAABgACDAAJyQAgpAAMwNwAAEAFAAAA3IACAAACAQAAACAAQAAAAAQIAAAAAAAAAAAAAAAAAAAAAAAAAAAAAAAAAAAAAAA==

> <PUBCHEM_IUPAC_OPENEYE_NAME>
7-methylsulfanyl-3-nitro-6H-[1,2,4]triazolo[5,1-c][1,2,4]triazin-4-one

> <PUBCHEM_IUPAC_CAS_NAME>
7-(methylthio)-3-nitro-6H-[1,2,4]triazolo[5,1-c][1,2,4]triazin-4-one

> <PUBCHEM_IUPAC_NAME_MARKUP>
7-methylsulfanyl-3-nitro-6<I>H</I>-[1,2,4]triazolo[5,1-c][1,2,4]triazin-4-one

> <PUBCHEM_IUPAC_NAME>
7-methylsulfanyl-3-nitro-6H-[1,2,4]triazolo[5,1-c][1,2,4]triazin-4-one

> <PUBCHEM_IUPAC_SYSTEMATIC_NAME>
7-methylsulfanyl-3-nitro-6H-[1,2,4]triazolo[5,1-c][1,2,4]triazin-4-one

> <PUBCHEM_IUPAC_TRADITIONAL_NAME>
7-(methylthio)-3-nitro-6H-[1,2,4]triazolo[5,1-c][1,2,4]triazin-4-one

> <PUBCHEM_IUPAC_INCHI>
InChI=1S/C5H4N6O3S/c1-15-5-6-4-8-7-2(11(13)14)3(12)10(4)9-5/h1H3,(H,6,8,9)

> <PUBCHEM_IUPAC_INCHIKEY>
IDVQGNMSSHPZSJ-UHFFFAOYSA-N

> <PUBCHEM_XLOGP3_AA>
0.4

> <PUBCHEM_EXACT_MASS>
228.00655918

> <PUBCHEM_MOLECULAR_FORMULA>
C5H4N6O3S

> <PUBCHEM_MOLECULAR_WEIGHT>
228.19

> <PUBCHEM_OPENEYE_CAN_SMILES>
CSC1=NC2=NN=C(C(=O)N2N1)[N+](=O)[O-]

> <PUBCHEM_OPENEYE_ISO_SMILES>
CSC1=NC2=NN=C(C(=O)N2N1)[N+](=O)[O-]

> <PUBCHEM_CACTVS_TPSA>
141

> <PUBCHEM_MONOISOTOPIC_WEIGHT>
228.00655918

> <PUBCHEM_TOTAL_CHARGE>
0

> <PUBCHEM_HEAVY_ATOM_COUNT>
15

> <PUBCHEM_ATOM_DEF_STEREO_COUNT>
0

> <PUBCHEM_ATOM_UDEF_STEREO_COUNT>
0

> <PUBCHEM_BOND_DEF_STEREO_COUNT>
0

> <PUBCHEM_BOND_UDEF_STEREO_COUNT>
0

> <PUBCHEM_ISOTOPIC_ATOM_COUNT>
0

> <PUBCHEM_COMPONENT_COUNT>
1

> <PUBCHEM_CACTVS_TAUTO_COUNT>
-1

> <PUBCHEM_COORDINATE_TYPE>
1
5
255

> <PUBCHEM_BONDANNOTATIONS>
12  14  8
5  11  8
5  12  8
5  6  8
6  13  8
7  11  8
7  13  8
8  11  8
8  9  8
9  14  8

$$$$
44205240
  -OEChem-03012215082D

 43 46  0     0  0  0  0  0  0999 V2000
    3.3461    1.9602    0.0000 S   0  0  0  0  0  0  0  0  0  0  0  0
    3.5025    2.9479    0.0000 O   0  0  0  0  0  0  0  0  0  0  0  0
    3.1896    0.9725    0.0000 O   0  0  0  0  0  0  0  0  0  0  0  0
    4.3337    1.8038    0.0000 N   0  0  0  0  0  0  0  0  0  0  0  0
    6.3183    0.7735    0.0000 N   0  0  0  0  0  0  0  0  0  0  0  0
    7.3183    0.7735    0.0000 N   0  0  0  0  0  0  0  0  0  0  0  0
    6.3305    4.1594    0.0000 N   0  0  0  0  0  0  0  0  0  0  0  0
    5.9523   -2.2653    0.0000 N   0  0  0  0  0  0  0  0  0  0  0  0
    8.6306   -3.5700    0.0000 N   0  0  0  0  0  0  0  0  0  0  0  0
    6.8183   -3.7653    0.0000 N   0  0  0  0  0  0  0  0  0  0  0  0
    5.7306    1.5825    0.0000 C   0  0  0  0  0  0  0  0  0  0  0  0
    4.9215    0.9948    0.0000 C   0  0  0  0  0  0  0  0  0  0  0  0
    5.1428    2.3916    0.0000 C   0  0  0  0  0  0  0  0  0  0  0  0
    6.5396    2.1703    0.0000 C   0  0  0  0  0  0  0  0  0  0  0  0
    2.3584    2.1166    0.0000 C   0  0  0  0  0  0  0  0  0  0  0  0
    6.0093   -0.1775    0.0000 C   0  0  0  0  0  0  0  0  0  0  0  0
    6.8183   -0.7653    0.0000 C   0  0  0  0  0  0  0  0  0  0  0  0
    6.4350    3.1648    0.0000 C   0  0  0  0  0  0  0  0  0  0  0  0
    7.6274   -0.1775    0.0000 C   0  0  0  0  0  0  0  0  0  0  0  0
    2.0000    3.0502    0.0000 C   0  0  0  0  0  0  0  0  0  0  0  0
    6.8183   -1.7653    0.0000 C   0  0  0  0  0  0  0  0  0  0  0  0
    7.6844   -2.2653    0.0000 C   0  0  0  0  0  0  0  0  0  0  0  0
    7.6844   -3.2653    0.0000 C   0  0  0  0  0  0  0  0  0  0  0  0
    8.6306   -1.9606    0.0000 C   0  0  0  0  0  0  0  0  0  0  0  0
    5.9523   -3.2653    0.0000 C   0  0  0  0  0  0  0  0  0  0  0  0
    9.2142   -2.7653    0.0000 C   0  0  0  0  0  0  0  0  0  0  0  0
    4.4199    0.6303    0.0000 H   0  0  0  0  0  0  0  0  0  0  0  0
    5.2860    0.4932    0.0000 H   0  0  0  0  0  0  0  0  0  0  0  0
    5.6444    2.7560    0.0000 H   0  0  0  0  0  0  0  0  0  0  0  0
    4.7783    2.8932    0.0000 H   0  0  0  0  0  0  0  0  0  0  0  0
    6.8114    1.6131    0.0000 H   0  0  0  0  0  0  0  0  0  0  0  0
    7.1356    2.3412    0.0000 H   0  0  0  0  0  0  0  0  0  0  0  0
    1.7498    1.9983    0.0000 H   0  0  0  0  0  0  0  0  0  0  0  0
    2.3692    1.4967    0.0000 H   0  0  0  0  0  0  0  0  0  0  0  0
    5.4197   -0.3691    0.0000 H   0  0  0  0  0  0  0  0  0  0  0  0
    8.2170   -0.3691    0.0000 H   0  0  0  0  0  0  0  0  0  0  0  0
    2.5788    3.2724    0.0000 H   0  0  0  0  0  0  0  0  0  0  0  0
    1.7778    3.6290    0.0000 H   0  0  0  0  0  0  0  0  0  0  0  0
    1.4212    2.8280    0.0000 H   0  0  0  0  0  0  0  0  0  0  0  0
    8.8232   -1.3713    0.0000 H   0  0  0  0  0  0  0  0  0  0  0  0
    8.8232   -4.1594    0.0000 H   0  0  0  0  0  0  0  0  0  0  0  0
    9.8342   -2.7653    0.0000 H   0  0  0  0  0  0  0  0  0  0  0  0
    5.4154   -3.5753    0.0000 H   0  0  0  0  0  0  0  0  0  0  0  0
  1  2  2  0  0  0  0
  1  3  2  0  0  0  0
  1  4  1  0  0  0  0
  1 15  1  0  0  0  0
  4 12  1  0  0  0  0
  4 13  1  0  0  0  0
  5  6  1  0  0  0  0
  5 11  1  0  0  0  0
  5 16  1  0  0  0  0
  6 19  2  0  0  0  0
  7 18  3  0  0  0  0
  8 21  1  0  0  0  0
  8 25  2  0  0  0  0
  9 23  1  0  0  0  0
  9 26  1  0  0  0  0
  9 41  1  0  0  0  0
 10 23  2  0  0  0  0
 10 25  1  0  0  0  0
 11 12  1  0  0  0  0
 11 13  1  0  0  0  0
 11 14  1  0  0  0  0
 12 27  1  0  0  0  0
 12 28  1  0  0  0  0
 13 29  1  0  0  0  0
 13 30  1  0  0  0  0
 14 18  1  0  0  0  0
 14 31  1  0  0  0  0
 14 32  1  0  0  0  0
 15 20  1  0  0  0  0
 15 33  1  0  0  0  0
 15 34  1  0  0  0  0
 16 17  2  0  0  0  0
 16 35  1  0  0  0  0
 17 19  1  0  0  0  0
 17 21  1  0  0  0  0
 19 36  1  0  0  0  0
 20 37  1  0  0  0  0
 20 38  1  0  0  0  0
 20 39  1  0  0  0  0
 21 22  2  0  0  0  0
 22 23  1  0  0  0  0
 22 24  1  0  0  0  0
 24 26  2  0  0  0  0
 24 40  1  0  0  0  0
 25 43  1  0  0  0  0
 26 42  1  0  0  0  0
M  END
> <PUBCHEM_COMPOUND_CID>
44205240

> <PUBCHEM_COMPOUND_CANONICALIZED>
1

> <PUBCHEM_CACTVS_COMPLEXITY>
678

> <PUBCHEM_CACTVS_HBOND_ACCEPTOR>
7

> <PUBCHEM_CACTVS_HBOND_DONOR>
1

> <PUBCHEM_CACTVS_ROTATABLE_BOND>
5

> <PUBCHEM_CACTVS_SUBSKEYS>
AAADceB7sABAAAAAAAAAAAAAAABYAWLAAAAsAAAAAAAAAFgB/gAAHAQYQAAADIjFXwS/sN7JkAKyBzZnZHDShCmxgqAZ2aA4ZJiI6OLA2dGUpAhomALIyC8QAAAOAAAAAAAAAAAAAAAAAAAAAAAAAAAAAA==

> <PUBCHEM_IUPAC_OPENEYE_NAME>
2-[1-ethylsulfonyl-3-[4-(7H-pyrrolo[2,3-d]pyrimidin-4-yl)pyrazol-1-yl]azetidin-3-yl]acetonitrile

> <PUBCHEM_IUPAC_CAS_NAME>
2-[1-ethylsulfonyl-3-[4-(7H-pyrrolo[2,3-d]pyrimidin-4-yl)-1-pyrazolyl]-3-azetidinyl]acetonitrile

> <PUBCHEM_IUPAC_NAME_MARKUP>
2-[1-ethylsulfonyl-3-[4-(7<I>H</I>-pyrrolo[2,3-d]pyrimidin-4-yl)pyrazol-1-yl]azetidin-3-yl]acetonitrile

> <PUBCHEM_IUPAC_NAME>
2-[1-ethylsulfonyl-3-[4-(7H-pyrrolo[2,3-d]pyrimidin-4-yl)pyrazol-1-yl]azetidin-3-yl]acetonitrile

> <PUBCHEM_IUPAC_SYSTEMATIC_NAME>
2-[1-ethylsulfonyl-3-[4-(7H-pyrrolo[2,3-d]pyrimidin-4-yl)pyrazol-1-yl]azetidin-3-yl]ethanenitrile

> <PUBCHEM_IUPAC_TRADITIONAL_NAME>
2-[1-esyl-3-[4-(7H-pyrrolo[2,3-d]pyrimidin-4-yl)pyrazol-1-yl]azetidin-3-yl]acetonitrile

> <PUBCHEM_IUPAC_INCHI>
InChI=1S/C16H17N7O2S/c1-2-26(24,25)22-9-16(10-22,4-5-17)23-8-12(7-21-23)14-13-3-6-18-15(13)20-11-19-14/h3,6-8,11H,2,4,9-10H2,1H3,(H,18,19,20)

> <PUBCHEM_IUPAC_INCHIKEY>
XUZMWHLSFXCVMG-UHFFFAOYSA-N

> <PUBCHEM_XLOGP3_AA>
-0.5

> <PUBCHEM_EXACT_MASS>
371.11644398

> <PUBCHEM_MOLECULAR_FORMULA>
C16H17N7O2S

> <PUBCHEM_MOLECULAR_WEIGHT>
371.4

> <PUBCHEM_OPENEYE_CAN_SMILES>
CCS(=O)(=O)N1CC(C1)(CC#N)N2C=C(C=N2)C3=C4C=CNC4=NC=N3

> <PUBCHEM_OPENEYE_ISO_SMILES>
CCS(=O)(=O)N1CC(C1)(CC#N)N2C=C(C=N2)C3=C4C=CNC4=NC=N3

> <PUBCHEM_CACTVS_TPSA>
129

> <PUBCHEM_MONOISOTOPIC_WEIGHT>
371.11644398

> <PUBCHEM_TOTAL_CHARGE>
0

> <PUBCHEM_HEAVY_ATOM_COUNT>
26

> <PUBCHEM_ATOM_DEF_STEREO_COUNT>
0

> <PUBCHEM_ATOM_UDEF_STEREO_COUNT>
0

> <PUBCHEM_BOND_DEF_STEREO_COUNT>
0

> <PUBCHEM_BOND_UDEF_STEREO_COUNT>
0

> <PUBCHEM_ISOTOPIC_ATOM_COUNT>
0

> <PUBCHEM_COMPONENT_COUNT>
1

> <PUBCHEM_CACTVS_TAUTO_COUNT>
3

> <PUBCHEM_COORDINATE_TYPE>
1
5
255

> <PUBCHEM_BONDANNOTATIONS>
10  23  8
10  25  8
16  17  8
17  19  8
21  22  8
22  23  8
22  24  8
24  26  8
5  16  8
5  6  8
6  19  8
8  21  8
8  25  8
9  23  8
9  26  8

$$$$
92727
  -OEChem-03012215082D

 94 97  0     1  0  0  0  0  0999 V2000
    7.1962   -0.5000    0.0000 O   0  0  0  0  0  0  0  0  0  0  0  0
    5.4641    2.5000    0.0000 O   0  0  0  0  0  0  0  0  0  0  0  0
    8.9282    3.5000    0.0000 O   0  0  0  0  0  0  0  0  0  0  0  0
    8.0622   -1.0000    0.0000 O   0  0  0  0  0  0  0  0  0  0  0  0
    9.7942   -2.0000    0.0000 O   0  0  0  0  0  0  0  0  0  0  0  0
    7.1962    3.5000    0.0000 N   0  0  0  0  0  0  0  0  0  0  0  0
    6.3301    1.0000    0.0000 N   0  0  0  0  0  0  0  0  0  0  0  0
    7.1962   -2.5000    0.0000 N   0  0  0  0  0  0  0  0  0  0  0  0
    8.0622    5.0000    0.0000 N   0  0  0  0  0  0  0  0  0  0  0  0
    5.4641    0.5000    0.0000 C   0  0  2  0  0  0  0  0  0  0  0  0
    7.1962    2.5000    0.0000 C   0  0  1  0  0  0  0  0  0  0  0  0
    5.4641   -0.5000    0.0000 C   0  0  0  0  0  0  0  0  0  0  0  0
    6.3301   -1.0000    0.0000 C   0  0  1  0  0  0  0  0  0  0  0  0
    8.0622    2.0000    0.0000 C   0  0  0  0  0  0  0  0  0  0  0  0
    6.3301   -2.0000    0.0000 C   0  0  2  0  0  0  0  0  0  0  0  0
    4.5981    1.0000    0.0000 C   0  0  0  0  0  0  0  0  0  0  0  0
    6.3301    2.0000    0.0000 C   0  0  0  0  0  0  0  0  0  0  0  0
    6.3301    4.0000    0.0000 C   0  0  0  0  0  0  0  0  0  0  0  0
    6.3301    5.0000    0.0000 C   0  0  0  0  0  0  0  0  0  0  0  0
    5.4641   -2.5000    0.0000 C   0  0  0  0  0  0  0  0  0  0  0  0
    8.0622    4.0000    0.0000 C   0  0  0  0  0  0  0  0  0  0  0  0
    8.0622    1.0000    0.0000 C   0  0  0  0  0  0  0  0  0  0  0  0
    8.9282    2.5000    0.0000 C   0  0  0  0  0  0  0  0  0  0  0  0
    7.1962    5.5000    0.0000 C   0  0  0  0  0  0  0  0  0  0  0  0
    3.7320    0.5000    0.0000 C   0  0  0  0  0  0  0  0  0  0  0  0
    5.4641   -3.5000    0.0000 C   0  0  0  0  0  0  0  0  0  0  0  0
    8.0622   -2.0000    0.0000 C   0  0  0  0  0  0  0  0  0  0  0  0
    3.7320   -0.5000    0.0000 C   0  0  0  0  0  0  0  0  0  0  0  0
    2.8660    1.0000    0.0000 C   0  0  0  0  0  0  0  0  0  0  0  0
    6.3301   -4.0000    0.0000 C   0  0  0  0  0  0  0  0  0  0  0  0
    4.5981   -4.0000    0.0000 C   0  0  0  0  0  0  0  0  0  0  0  0
    8.9282   -2.5000    0.0000 C   0  0  0  0  0  0  0  0  0  0  0  0
    2.8660   -1.0000    0.0000 C   0  0  0  0  0  0  0  0  0  0  0  0
    2.0000    0.5000    0.0000 C   0  0  0  0  0  0  0  0  0  0  0  0
    2.0000   -0.5000    0.0000 C   0  0  0  0  0  0  0  0  0  0  0  0
    6.3301   -5.0000    0.0000 C   0  0  0  0  0  0  0  0  0  0  0  0
    4.5981   -5.0000    0.0000 C   0  0  0  0  0  0  0  0  0  0  0  0
    5.4641   -5.5000    0.0000 C   0  0  0  0  0  0  0  0  0  0  0  0
   10.6603   -2.5000    0.0000 C   0  0  0  0  0  0  0  0  0  0  0  0
   10.6603   -3.5000    0.0000 C   0  0  0  0  0  0  0  0  0  0  0  0
   11.5263   -2.0000    0.0000 C   0  0  0  0  0  0  0  0  0  0  0  0
   11.5263   -4.0000    0.0000 C   0  0  0  0  0  0  0  0  0  0  0  0
   12.3923   -2.5000    0.0000 C   0  0  0  0  0  0  0  0  0  0  0  0
    9.7942   -4.0000    0.0000 C   0  0  0  0  0  0  0  0  0  0  0  0
   11.5263   -1.0000    0.0000 C   0  0  0  0  0  0  0  0  0  0  0  0
   12.3923   -3.5000    0.0000 C   0  0  0  0  0  0  0  0  0  0  0  0
    5.4641    1.1200    0.0000 H   0  0  0  0  0  0  0  0  0  0  0  0
    6.6592    2.8100    0.0000 H   0  0  0  0  0  0  0  0  0  0  0  0
    4.8535   -0.3923    0.0000 H   0  0  0  0  0  0  0  0  0  0  0  0
    5.2520   -1.0826    0.0000 H   0  0  0  0  0  0  0  0  0  0  0  0
    6.8671   -1.3100    0.0000 H   0  0  0  0  0  0  0  0  0  0  0  0
    8.0622    2.6200    0.0000 H   0  0  0  0  0  0  0  0  0  0  0  0
    6.3301   -2.6200    0.0000 H   0  0  0  0  0  0  0  0  0  0  0  0
    6.8671    0.6900    0.0000 H   0  0  0  0  0  0  0  0  0  0  0  0
    4.9966    1.4750    0.0000 H   0  0  0  0  0  0  0  0  0  0  0  0
    4.1996    1.4750    0.0000 H   0  0  0  0  0  0  0  0  0  0  0  0
    5.7196    4.1077    0.0000 H   0  0  0  0  0  0  0  0  0  0  0  0
    6.1181    3.4174    0.0000 H   0  0  0  0  0  0  0  0  0  0  0  0
    6.1181    5.5826    0.0000 H   0  0  0  0  0  0  0  0  0  0  0  0
    5.7196    4.8923    0.0000 H   0  0  0  0  0  0  0  0  0  0  0  0
    5.2520   -1.9174    0.0000 H   0  0  0  0  0  0  0  0  0  0  0  0
    4.8535   -2.6077    0.0000 H   0  0  0  0  0  0  0  0  0  0  0  0
    7.4422    1.0000    0.0000 H   0  0  0  0  0  0  0  0  0  0  0  0
    8.0622    0.3800    0.0000 H   0  0  0  0  0  0  0  0  0  0  0  0
    8.6822    1.0000    0.0000 H   0  0  0  0  0  0  0  0  0  0  0  0
    9.2382    1.9631    0.0000 H   0  0  0  0  0  0  0  0  0  0  0  0
    9.4651    2.8100    0.0000 H   0  0  0  0  0  0  0  0  0  0  0  0
    8.6182    3.0369    0.0000 H   0  0  0  0  0  0  0  0  0  0  0  0
    7.5947    5.9750    0.0000 H   0  0  0  0  0  0  0  0  0  0  0  0
    6.7976    5.9750    0.0000 H   0  0  0  0  0  0  0  0  0  0  0  0
    7.1962   -3.1200    0.0000 H   0  0  0  0  0  0  0  0  0  0  0  0
    8.5991    5.3100    0.0000 H   0  0  0  0  0  0  0  0  0  0  0  0
    7.1962    0.1200    0.0000 H   0  0  0  0  0  0  0  0  0  0  0  0
    4.2690   -0.8100    0.0000 H   0  0  0  0  0  0  0  0  0  0  0  0
    2.8660    1.6200    0.0000 H   0  0  0  0  0  0  0  0  0  0  0  0
    6.8671   -3.6900    0.0000 H   0  0  0  0  0  0  0  0  0  0  0  0
    4.0611   -3.6900    0.0000 H   0  0  0  0  0  0  0  0  0  0  0  0
    8.5297   -2.9750    0.0000 H   0  0  0  0  0  0  0  0  0  0  0  0
    9.3267   -2.9750    0.0000 H   0  0  0  0  0  0  0  0  0  0  0  0
    2.8660   -1.6200    0.0000 H   0  0  0  0  0  0  0  0  0  0  0  0
    1.4631    0.8100    0.0000 H   0  0  0  0  0  0  0  0  0  0  0  0
    1.4631   -0.8100    0.0000 H   0  0  0  0  0  0  0  0  0  0  0  0
    6.8671   -5.3100    0.0000 H   0  0  0  0  0  0  0  0  0  0  0  0
    4.0611   -5.3100    0.0000 H   0  0  0  0  0  0  0  0  0  0  0  0
    5.4641   -6.1200    0.0000 H   0  0  0  0  0  0  0  0  0  0  0  0
   11.5263   -4.6200    0.0000 H   0  0  0  0  0  0  0  0  0  0  0  0
   12.9292   -2.1900    0.0000 H   0  0  0  0  0  0  0  0  0  0  0  0
    9.4842   -3.4631    0.0000 H   0  0  0  0  0  0  0  0  0  0  0  0
    9.2573   -4.3100    0.0000 H   0  0  0  0  0  0  0  0  0  0  0  0
   10.1042   -4.5369    0.0000 H   0  0  0  0  0  0  0  0  0  0  0  0
   12.1463   -1.0000    0.0000 H   0  0  0  0  0  0  0  0  0  0  0  0
   11.5263   -0.3800    0.0000 H   0  0  0  0  0  0  0  0  0  0  0  0
   10.9063   -1.0000    0.0000 H   0  0  0  0  0  0  0  0  0  0  0  0
   12.9292   -3.8100    0.0000 H   0  0  0  0  0  0  0  0  0  0  0  0
 13  1  1  6  0  0  0
  1 73  1  0  0  0  0
  2 17  2  0  0  0  0
  3 21  2  0  0  0  0
  4 27  2  0  0  0  0
  5 32  1  0  0  0  0
  5 39  1  0  0  0  0
  6 11  1  0  0  0  0
  6 18  1  0  0  0  0
  6 21  1  0  0  0  0
 10  7  1  6  0  0  0
  7 17  1  0  0  0  0
  7 54  1  0  0  0  0
 15  8  1  1  0  0  0
  8 27  1  0  0  0  0
  8 71  1  0  0  0  0
  9 21  1  0  0  0  0
  9 24  1  0  0  0  0
  9 72  1  0  0  0  0
 10 12  1  0  0  0  0
 10 16  1  0  0  0  0
 10 47  1  0  0  0  0
 11 14  1  0  0  0  0
 11 17  1  1  0  0  0
 11 48  1  0  0  0  0
 12 13  1  0  0  0  0
 12 49  1  0  0  0  0
 12 50  1  0  0  0  0
 13 15  1  0  0  0  0
 13 51  1  0  0  0  0
 14 22  1  0  0  0  0
 14 23  1  0  0  0  0
 14 52  1  0  0  0  0
 15 20  1  0  0  0  0
 15 53  1  0  0  0  0
 16 25  1  0  0  0  0
 16 55  1  0  0  0  0
 16 56  1  0  0  0  0
 18 19  1  0  0  0  0
 18 57  1  0  0  0  0
 18 58  1  0  0  0  0
 19 24  1  0  0  0  0
 19 59  1  0  0  0  0
 19 60  1  0  0  0  0
 20 26  1  0  0  0  0
 20 61  1  0  0  0  0
 20 62  1  0  0  0  0
 22 63  1  0  0  0  0
 22 64  1  0  0  0  0
 22 65  1  0  0  0  0
 23 66  1  0  0  0  0
 23 67  1  0  0  0  0
 23 68  1  0  0  0  0
 24 69  1  0  0  0  0
 24 70  1  0  0  0  0
 25 28  2  0  0  0  0
 25 29  1  0  0  0  0
 26 30  2  0  0  0  0
 26 31  1  0  0  0  0
 27 32  1  0  0  0  0
 28 33  1  0  0  0  0
 28 74  1  0  0  0  0
 29 34  2  0  0  0  0
 29 75  1  0  0  0  0
 30 36  1  0  0  0  0
 30 76  1  0  0  0  0
 31 37  2  0  0  0  0
 31 77  1  0  0  0  0
 32 78  1  0  0  0  0
 32 79  1  0  0  0  0
 33 35  2  0  0  0  0
 33 80  1  0  0  0  0
 34 35  1  0  0  0  0
 34 81  1  0  0  0  0
 35 82  1  0  0  0  0
 36 38  2  0  0  0  0
 36 83  1  0  0  0  0
 37 38  1  0  0  0  0
 37 84  1  0  0  0  0
 38 85  1  0  0  0  0
 39 40  2  0  0  0  0
 39 41  1  0  0  0  0
 40 42  1  0  0  0  0
 40 44  1  0  0  0  0
 41 43  2  0  0  0  0
 41 45  1  0  0  0  0
 42 46  2  0  0  0  0
 42 86  1  0  0  0  0
 43 46  1  0  0  0  0
 43 87  1  0  0  0  0
 44 88  1  0  0  0  0
 44 89  1  0  0  0  0
 44 90  1  0  0  0  0
 45 91  1  0  0  0  0
 45 92  1  0  0  0  0
 45 93  1  0  0  0  0
 46 94  1  0  0  0  0
M  END
> <PUBCHEM_COMPOUND_CID>
92727

> <PUBCHEM_COMPOUND_CANONICALIZED>
1

> <PUBCHEM_CACTVS_COMPLEXITY>
940

> <PUBCHEM_CACTVS_HBOND_ACCEPTOR>
5

> <PUBCHEM_CACTVS_HBOND_DONOR>
4

> <PUBCHEM_CACTVS_ROTATABLE_BOND>
15

> <PUBCHEM_CACTVS_SUBSKEYS>
AAADcfB/uAAAAAAAAAAAAAAAAAAAAAAAAAA8YMEAAAAAAAABUAAAHgAQCAAADTzhmAYzBoPABgCIAiFSEAICCAAgIAAIiIHMCIiOdjKE8T+XeCCu1hOYqAeQwPAOAAACAAAIAAAAAAQAABAAAAAAAAAAAA==

> <PUBCHEM_IUPAC_OPENEYE_NAME>
(2S)-N-[(1S,3S,4S)-1-benzyl-4-[[2-(2,6-dimethylphenoxy)acetyl]amino]-3-hydroxy-5-phenyl-pentyl]-3-methyl-2-(2-oxohexahydropyrimidin-1-yl)butanamide

> <PUBCHEM_IUPAC_CAS_NAME>
(2S)-N-[(2S,4S,5S)-5-[[2-(2,6-dimethylphenoxy)-1-oxoethyl]amino]-4-hydroxy-1,6-diphenylhexan-2-yl]-3-methyl-2-(2-oxo-1,3-diazinan-1-yl)butanamide

> <PUBCHEM_IUPAC_NAME_MARKUP>
(2<I>S</I>)-<I>N</I>-[(2<I>S</I>,4<I>S</I>,5<I>S</I>)-5-[[2-(2,6-dimethylphenoxy)acetyl]amino]-4-hydroxy-1,6-diphenylhexan-2-yl]-3-methyl-2-(2-oxo-1,3-diazinan-1-yl)butanamide

> <PUBCHEM_IUPAC_NAME>
(2S)-N-[(2S,4S,5S)-5-[[2-(2,6-dimethylphenoxy)acetyl]amino]-4-hydroxy-1,6-diphenylhexan-2-yl]-3-methyl-2-(2-oxo-1,3-diazinan-1-yl)butanamide

> <PUBCHEM_IUPAC_SYSTEMATIC_NAME>
(2S)-N-[(2S,4S,5S)-5-[2-(2,6-dimethylphenoxy)ethanoylamino]-4-oxidanyl-1,6-diphenyl-hexan-2-yl]-3-methyl-2-(2-oxidanylidene-1,3-diazinan-1-yl)butanamide

> <PUBCHEM_IUPAC_TRADITIONAL_NAME>
(2S)-N-[(1S,3S,4S)-1-benzyl-4-[[2-(2,6-dimethylphenoxy)acetyl]amino]-3-hydroxy-5-phenyl-pentyl]-2-(2-ketohexahydropyrimidin-1-yl)-3-methyl-butyramide

> <PUBCHEM_IUPAC_INCHI>
InChI=1S/C37H48N4O5/c1-25(2)34(41-20-12-19-38-37(41)45)36(44)39-30(21-28-15-7-5-8-16-28)23-32(42)31(22-29-17-9-6-10-18-29)40-33(43)24-46-35-26(3)13-11-14-27(35)4/h5-11,13-18,25,30-32,34,42H,12,19-24H2,1-4H3,(H,38,45)(H,39,44)(H,40,43)/t30-,31-,32-,34-/m0/s1

> <PUBCHEM_IUPAC_INCHIKEY>
KJHKTHWMRKYKJE-SUGCFTRWSA-N

> <PUBCHEM_XLOGP3_AA>
5.9

> <PUBCHEM_EXACT_MASS>
628.36247064

> <PUBCHEM_MOLECULAR_FORMULA>
C37H48N4O5

> <PUBCHEM_MOLECULAR_WEIGHT>
628.8

> <PUBCHEM_OPENEYE_CAN_SMILES>
CC1=C(C(=CC=C1)C)OCC(=O)NC(CC2=CC=CC=C2)C(CC(CC3=CC=CC=C3)NC(=O)C(C(C)C)N4CCCNC4=O)O

> <PUBCHEM_OPENEYE_ISO_SMILES>
CC1=C(C(=CC=C1)C)OCC(=O)N[C@@H](CC2=CC=CC=C2)[C@H](C[C@H](CC3=CC=CC=C3)NC(=O)[C@H](C(C)C)N4CCCNC4=O)O

> <PUBCHEM_CACTVS_TPSA>
120

> <PUBCHEM_MONOISOTOPIC_WEIGHT>
628.36247064

> <PUBCHEM_TOTAL_CHARGE>
0

> <PUBCHEM_HEAVY_ATOM_COUNT>
46

> <PUBCHEM_ATOM_DEF_STEREO_COUNT>
4

> <PUBCHEM_ATOM_UDEF_STEREO_COUNT>
0

> <PUBCHEM_BOND_DEF_STEREO_COUNT>
0

> <PUBCHEM_BOND_UDEF_STEREO_COUNT>
0

> <PUBCHEM_ISOTOPIC_ATOM_COUNT>
0

> <PUBCHEM_COMPONENT_COUNT>
1

> <PUBCHEM_CACTVS_TAUTO_COUNT>
8

> <PUBCHEM_COORDINATE_TYPE>
1
5
255

> <PUBCHEM_BONDANNOTATIONS>
13  1  6
11  17  5
25  28  8
25  29  8
26  30  8
26  31  8
28  33  8
29  34  8
30  36  8
31  37  8
33  35  8
34  35  8
36  38  8
37  38  8
39  40  8
39  41  8
40  42  8
41  43  8
42  46  8
43  46  8
10  7  6
15  8  5

$$$$
213039
  -OEChem-03012215082D

 75 78  0     1  0  0  0  0  0999 V2000
    6.3238    1.8811    0.0000 S   0  0  0  0  0  0  0  0  0  0  0  0
    8.1779   -5.4433    0.0000 O   0  0  0  0  0  0  0  0  0  0  0  0
   10.0752   -5.4390    0.0000 O   0  0  0  0  0  0  0  0  0  0  0  0
    7.8689   -2.8742    0.0000 O   0  0  0  0  0  0  0  0  0  0  0  0
    4.3164   -0.3484    0.0000 O   0  0  0  0  0  0  0  0  0  0  0  0
    6.2216   -3.4094    0.0000 O   0  0  0  0  0  0  0  0  0  0  0  0
    5.5807    2.5502    0.0000 O   0  0  0  0  0  0  0  0  0  0  0  0
    7.0670    1.2119    0.0000 O   0  0  0  0  0  0  0  0  0  0  0  0
    6.5817   -1.7152    0.0000 N   0  0  0  0  0  0  0  0  0  0  0  0
    5.6547    1.1379    0.0000 N   0  0  3  0  0  0  0  0  0  0  0  0
    9.0003    4.8536    0.0000 N   0  0  0  0  0  0  0  0  0  0  0  0
    9.1290   -4.1343    0.0000 C   0  0  2  0  0  0  0  0  0  0  0  0
    9.1290   -5.1343    0.0000 C   0  0  1  0  0  0  0  0  0  0  0  0
    8.1779   -3.8253    0.0000 C   0  0  2  0  0  0  0  0  0  0  0  0
   10.0752   -3.8296    0.0000 C   0  0  0  0  0  0  0  0  0  0  0  0
    7.5901   -4.6343    0.0000 C   0  0  0  0  0  0  0  0  0  0  0  0
   10.6588   -4.6343    0.0000 C   0  0  0  0  0  0  0  0  0  0  0  0
    5.6036   -1.5073    0.0000 C   0  0  2  0  0  0  0  0  0  0  0  0
    5.2946   -0.5563    0.0000 C   0  0  1  0  0  0  0  0  0  0  0  0
    6.8907   -2.6663    0.0000 C   0  0  0  0  0  0  0  0  0  0  0  0
    5.9637    0.1869    0.0000 C   0  0  0  0  0  0  0  0  0  0  0  0
    4.9344   -2.2505    0.0000 C   0  0  0  0  0  0  0  0  0  0  0  0
    4.6765    1.3458    0.0000 C   0  0  0  0  0  0  0  0  0  0  0  0
    4.3675    2.2969    0.0000 C   0  0  0  0  0  0  0  0  0  0  0  0
    3.9563   -2.0426    0.0000 C   0  0  0  0  0  0  0  0  0  0  0  0
    6.9929    2.6242    0.0000 C   0  0  0  0  0  0  0  0  0  0  0  0
    3.3894    2.5048    0.0000 C   0  0  0  0  0  0  0  0  0  0  0  0
    5.0366    3.0400    0.0000 C   0  0  0  0  0  0  0  0  0  0  0  0
    3.2872   -2.7857    0.0000 C   0  0  0  0  0  0  0  0  0  0  0  0
    3.6473   -1.0915    0.0000 C   0  0  0  0  0  0  0  0  0  0  0  0
    7.9711    2.4163    0.0000 C   0  0  0  0  0  0  0  0  0  0  0  0
    6.6839    3.5753    0.0000 C   0  0  0  0  0  0  0  0  0  0  0  0
    2.3090   -2.5778    0.0000 C   0  0  0  0  0  0  0  0  0  0  0  0
    2.6691   -0.8836    0.0000 C   0  0  0  0  0  0  0  0  0  0  0  0
    2.0000   -1.6267    0.0000 C   0  0  0  0  0  0  0  0  0  0  0  0
    8.6402    3.1594    0.0000 C   0  0  0  0  0  0  0  0  0  0  0  0
    7.3530    4.3184    0.0000 C   0  0  0  0  0  0  0  0  0  0  0  0
    8.3312    4.1105    0.0000 C   0  0  0  0  0  0  0  0  0  0  0  0
    9.1301   -3.2843    0.0000 H   0  0  0  0  0  0  0  0  0  0  0  0
    9.1301   -5.9843    0.0000 H   0  0  0  0  0  0  0  0  0  0  0  0
    7.5655   -3.7283    0.0000 H   0  0  0  0  0  0  0  0  0  0  0  0
   10.6126   -3.5203    0.0000 H   0  0  0  0  0  0  0  0  0  0  0  0
    9.8242   -3.2626    0.0000 H   0  0  0  0  0  0  0  0  0  0  0  0
    7.1294   -4.2194    0.0000 H   0  0  0  0  0  0  0  0  0  0  0  0
    7.1294   -5.0492    0.0000 H   0  0  0  0  0  0  0  0  0  0  0  0
   11.1197   -5.0490    0.0000 H   0  0  0  0  0  0  0  0  0  0  0  0
   11.1197   -4.2196    0.0000 H   0  0  0  0  0  0  0  0  0  0  0  0
    6.0184   -1.0466    0.0000 H   0  0  0  0  0  0  0  0  0  0  0  0
    5.1030    0.0334    0.0000 H   0  0  0  0  0  0  0  0  0  0  0  0
    6.3454   -0.3017    0.0000 H   0  0  0  0  0  0  0  0  0  0  0  0
    6.5111    0.4779    0.0000 H   0  0  0  0  0  0  0  0  0  0  0  0
    6.9966   -1.2545    0.0000 H   0  0  0  0  0  0  0  0  0  0  0  0
    4.7022   -2.8253    0.0000 H   0  0  0  0  0  0  0  0  0  0  0  0
    5.4602   -2.5790    0.0000 H   0  0  0  0  0  0  0  0  0  0  0  0
    4.0626    1.2596    0.0000 H   0  0  0  0  0  0  0  0  0  0  0  0
    4.6549    0.7262    0.0000 H   0  0  0  0  0  0  0  0  0  0  0  0
    4.9740    2.1680    0.0000 H   0  0  0  0  0  0  0  0  0  0  0  0
    4.1248    0.2413    0.0000 H   0  0  0  0  0  0  0  0  0  0  0  0
    3.5183    3.1113    0.0000 H   0  0  0  0  0  0  0  0  0  0  0  0
    2.7829    2.6337    0.0000 H   0  0  0  0  0  0  0  0  0  0  0  0
    3.2604    1.8984    0.0000 H   0  0  0  0  0  0  0  0  0  0  0  0
    5.4974    2.6252    0.0000 H   0  0  0  0  0  0  0  0  0  0  0  0
    5.4515    3.5008    0.0000 H   0  0  0  0  0  0  0  0  0  0  0  0
    4.5759    3.4549    0.0000 H   0  0  0  0  0  0  0  0  0  0  0  0
    3.4788   -3.3754    0.0000 H   0  0  0  0  0  0  0  0  0  0  0  0
    4.0621   -0.6308    0.0000 H   0  0  0  0  0  0  0  0  0  0  0  0
    8.1627    1.8266    0.0000 H   0  0  0  0  0  0  0  0  0  0  0  0
    6.0775    3.7042    0.0000 H   0  0  0  0  0  0  0  0  0  0  0  0
    1.8942   -3.0386    0.0000 H   0  0  0  0  0  0  0  0  0  0  0  0
    2.4775   -0.2939    0.0000 H   0  0  0  0  0  0  0  0  0  0  0  0
    9.2467    3.0305    0.0000 H   0  0  0  0  0  0  0  0  0  0  0  0
    7.1614    4.9081    0.0000 H   0  0  0  0  0  0  0  0  0  0  0  0
    1.3936   -1.4978    0.0000 H   0  0  0  0  0  0  0  0  0  0  0  0
    8.8087    5.4433    0.0000 H   0  0  0  0  0  0  0  0  0  0  0  0
    9.6068    4.7247    0.0000 H   0  0  0  0  0  0  0  0  0  0  0  0
  1  7  2  0  0  0  0
  1  8  2  0  0  0  0
  1 10  1  0  0  0  0
  1 26  1  0  0  0  0
  2 13  1  0  0  0  0
  2 16  1  0  0  0  0
  3 13  1  0  0  0  0
  3 17  1  0  0  0  0
 14  4  1  6  0  0  0
  4 20  1  0  0  0  0
 19  5  1  6  0  0  0
  5 58  1  0  0  0  0
  6 20  2  0  0  0  0
 18  9  1  1  0  0  0
  9 20  1  0  0  0  0
  9 52  1  0  0  0  0
 10 21  1  0  0  0  0
 10 23  1  0  0  0  0
 11 38  1  0  0  0  0
 11 74  1  0  0  0  0
 11 75  1  0  0  0  0
 12 13  1  0  0  0  0
 12 14  1  0  0  0  0
 12 15  1  0  0  0  0
 12 39  1  1  0  0  0
 13 40  1  1  0  0  0
 14 16  1  0  0  0  0
 14 41  1  0  0  0  0
 15 17  1  0  0  0  0
 15 42  1  0  0  0  0
 15 43  1  0  0  0  0
 16 44  1  0  0  0  0
 16 45  1  0  0  0  0
 17 46  1  0  0  0  0
 17 47  1  0  0  0  0
 18 19  1  0  0  0  0
 18 22  1  0  0  0  0
 18 48  1  0  0  0  0
 19 21  1  0  0  0  0
 19 49  1  0  0  0  0
 21 50  1  0  0  0  0
 21 51  1  0  0  0  0
 22 25  1  0  0  0  0
 22 53  1  0  0  0  0
 22 54  1  0  0  0  0
 23 24  1  0  0  0  0
 23 55  1  0  0  0  0
 23 56  1  0  0  0  0
 24 27  1  0  0  0  0
 24 28  1  0  0  0  0
 24 57  1  0  0  0  0
 25 29  2  0  0  0  0
 25 30  1  0  0  0  0
 26 31  2  0  0  0  0
 26 32  1  0  0  0  0
 27 59  1  0  0  0  0
 27 60  1  0  0  0  0
 27 61  1  0  0  0  0
 28 62  1  0  0  0  0
 28 63  1  0  0  0  0
 28 64  1  0  0  0  0
 29 33  1  0  0  0  0
 29 65  1  0  0  0  0
 30 34  2  0  0  0  0
 30 66  1  0  0  0  0
 31 36  1  0  0  0  0
 31 67  1  0  0  0  0
 32 37  2  0  0  0  0
 32 68  1  0  0  0  0
 33 35  2  0  0  0  0
 33 69  1  0  0  0  0
 34 35  1  0  0  0  0
 34 70  1  0  0  0  0
 35 73  1  0  0  0  0
 36 38  2  0  0  0  0
 36 71  1  0  0  0  0
 37 38  1  0  0  0  0
 37 72  1  0  0  0  0
M  END
> <PUBCHEM_COMPOUND_CID>
213039

> <PUBCHEM_COMPOUND_CANONICALIZED>
1

> <PUBCHEM_CACTVS_COMPLEXITY>
853

> <PUBCHEM_CACTVS_HBOND_ACCEPTOR>
9

> <PUBCHEM_CACTVS_HBOND_DONOR>
3

> <PUBCHEM_CACTVS_ROTATABLE_BOND>
12

> <PUBCHEM_CACTVS_SUBSKEYS>
AAADcfB7OABAAAAAAAAAAAAAAAAAASJAAAAwYAAAAAASAAABQAAAHgQQSAAADTzx2AcyyYLABgKIAiRCWHDCABAgAgAIiJgIZIkbMCKA0ZGuYABllgCeyAfQ4KgOAAQAAAAAAAAACAAAAAAAAAAAAAAAAA==

> <PUBCHEM_IUPAC_OPENEYE_NAME>
[(3aS,4R,6aR)-2,3,3a,4,5,6a-hexahydrofuro[2,3-b]furan-4-yl] N-[(1S,2R)-3-[(4-aminophenyl)sulfonyl-isobutyl-amino]-1-benzyl-2-hydroxy-propyl]carbamate

> <PUBCHEM_IUPAC_CAS_NAME>
N-[(2S,3R)-4-[(4-aminophenyl)sulfonyl-(2-methylpropyl)amino]-3-hydroxy-1-phenylbutan-2-yl]carbamic acid [(3aS,4R,6aR)-2,3,3a,4,5,6a-hexahydrofuro[2,3-b]furan-4-yl] ester

> <PUBCHEM_IUPAC_NAME_MARKUP>
[(3<I>a</I><I>S</I>,4<I>R</I>,6<I>a</I><I>R</I>)-2,3,3<I>a</I>,4,5,6<I>a</I>-hexahydrofuro[2,3-b]furan-4-yl] <I>N</I>-[(2<I>S</I>,3<I>R</I>)-4-[(4-aminophenyl)sulfonyl-(2-methylpropyl)amino]-3-hydroxy-1-phenylbutan-2-yl]carbamate

> <PUBCHEM_IUPAC_NAME>
[(3aS,4R,6aR)-2,3,3a,4,5,6a-hexahydrofuro[2,3-b]furan-4-yl] N-[(2S,3R)-4-[(4-aminophenyl)sulfonyl-(2-methylpropyl)amino]-3-hydroxy-1-phenylbutan-2-yl]carbamate

> <PUBCHEM_IUPAC_SYSTEMATIC_NAME>
[(3aS,4R,6aR)-2,3,3a,4,5,6a-hexahydrofuro[2,3-b]furan-4-yl] N-[(2S,3R)-4-[(4-aminophenyl)sulfonyl-(2-methylpropyl)amino]-3-oxidanyl-1-phenyl-butan-2-yl]carbamate

> <PUBCHEM_IUPAC_TRADITIONAL_NAME>
N-[(1S,2R)-1-benzyl-2-hydroxy-3-[isobutyl(sulfanilyl)amino]propyl]carbamic acid [(3aS,4R,6aR)-2,3,3a,4,5,6a-hexahydrofuro[2,3-b]furan-4-yl] ester

> <PUBCHEM_IUPAC_INCHI>
InChI=1S/C27H37N3O7S/c1-18(2)15-30(38(33,34)21-10-8-20(28)9-11-21)16-24(31)23(14-19-6-4-3-5-7-19)29-27(32)37-25-17-36-26-22(25)12-13-35-26/h3-11,18,22-26,31H,12-17,28H2,1-2H3,(H,29,32)/t22-,23-,24+,25-,26+/m0/s1

> <PUBCHEM_IUPAC_INCHIKEY>
CJBJHOAVZSMMDJ-HEXNFIEUSA-N

> <PUBCHEM_XLOGP3_AA>
2.9

> <PUBCHEM_EXACT_MASS>
547.23522170

> <PUBCHEM_MOLECULAR_FORMULA>
C27H37N3O7S

> <PUBCHEM_MOLECULAR_WEIGHT>
547.7

> <PUBCHEM_OPENEYE_CAN_SMILES>
CC(C)CN(CC(C(CC1=CC=CC=C1)NC(=O)OC2COC3C2CCO3)O)S(=O)(=O)C4=CC=C(C=C4)N

> <PUBCHEM_OPENEYE_ISO_SMILES>
CC(C)CN(C[C@H]([C@H](CC1=CC=CC=C1)NC(=O)O[C@H]2CO[C@@H]3[C@H]2CCO3)O)S(=O)(=O)C4=CC=C(C=C4)N

> <PUBCHEM_CACTVS_TPSA>
149

> <PUBCHEM_MONOISOTOPIC_WEIGHT>
547.23522170

> <PUBCHEM_TOTAL_CHARGE>
0

> <PUBCHEM_HEAVY_ATOM_COUNT>
38

> <PUBCHEM_ATOM_DEF_STEREO_COUNT>
5

> <PUBCHEM_ATOM_UDEF_STEREO_COUNT>
0

> <PUBCHEM_BOND_DEF_STEREO_COUNT>
0

> <PUBCHEM_BOND_UDEF_STEREO_COUNT>
0

> <PUBCHEM_ISOTOPIC_ATOM_COUNT>
0

> <PUBCHEM_COMPONENT_COUNT>
1

> <PUBCHEM_CACTVS_TAUTO_COUNT>
2

> <PUBCHEM_COORDINATE_TYPE>
1
5
255

> <PUBCHEM_BONDANNOTATIONS>
12  39  5
13  40  5
25  29  8
25  30  8
26  31  8
26  32  8
29  33  8
30  34  8
31  36  8
32  37  8
33  35  8
34  35  8
36  38  8
37  38  8
14  4  6
19  5  6
18  9  5

$$$$
5743
  -OEChem-03012215082D

 57 60  0     1  0  0  0  0  0999 V2000
    5.0182   -0.2293    0.0000 F   0  0  0  0  0  0  0  0  0  0  0  0
    8.0319    1.2610    0.0000 O   0  0  0  0  0  0  0  0  0  0  0  0
    4.7950    0.5046    0.0000 O   0  0  0  0  0  0  0  0  0  0  0  0
   10.0622    0.4874    0.0000 O   0  0  0  0  0  0  0  0  0  0  0  0
    9.8566    2.4768    0.0000 O   0  0  0  0  0  0  0  0  0  0  0  0
    2.0000   -3.0477    0.0000 O   0  0  0  0  0  0  0  0  0  0  0  0
    7.3931    0.0046    0.0000 C   0  0  1  0  0  0  0  0  0  0  0  0
    7.3931   -0.9954    0.0000 C   0  0  2  0  0  0  0  0  0  0  0  0
    6.5271   -1.4954    0.0000 C   0  0  1  0  0  0  0  0  0  0  0  0
    5.6610   -0.9954    0.0000 C   0  0  1  0  0  0  0  0  0  0  0  0
    8.3393    0.3094    0.0000 C   0  0  1  0  0  0  0  0  0  0  0  0
    8.3393   -1.3001    0.0000 C   0  0  0  0  0  0  0  0  0  0  0  0
    6.5271    0.5046    0.0000 C   0  0  0  0  0  0  0  0  0  0  0  0
    8.9229   -0.4954    0.0000 C   0  0  1  0  0  0  0  0  0  0  0  0
    5.6610    0.0046    0.0000 C   0  0  2  0  0  0  0  0  0  0  0  0
    4.7510   -1.5022    0.0000 C   0  0  1  0  0  0  0  0  0  0  0  0
    6.5431   -2.5369    0.0000 C   0  0  0  0  0  0  0  0  0  0  0  0
    7.3931    1.0046    0.0000 C   0  0  0  0  0  0  0  0  0  0  0  0
    5.6451   -3.0646    0.0000 C   0  0  0  0  0  0  0  0  0  0  0  0
    4.7430   -2.5438    0.0000 C   0  0  0  0  0  0  0  0  0  0  0  0
    9.1493    0.8957    0.0000 C   0  0  0  0  0  0  0  0  0  0  0  0
    9.9229   -0.4954    0.0000 C   0  0  0  0  0  0  0  0  0  0  0  0
    4.4163   -0.5599    0.0000 C   0  0  0  0  0  0  0  0  0  0  0  0
    3.8242   -0.9381    0.0000 C   0  0  0  0  0  0  0  0  0  0  0  0
    3.8076   -3.0935    0.0000 C   0  0  0  0  0  0  0  0  0  0  0  0
    9.0465    1.8904    0.0000 C   0  0  0  0  0  0  0  0  0  0  0  0
    2.8763   -1.4661    0.0000 C   0  0  0  0  0  0  0  0  0  0  0  0
    2.8680   -2.5510    0.0000 C   0  0  0  0  0  0  0  0  0  0  0  0
    7.4830   -1.8406    0.0000 H   0  0  0  0  0  0  0  0  0  0  0  0
    7.2664   -1.9147    0.0000 H   0  0  0  0  0  0  0  0  0  0  0  0
    8.0883   -1.8670    0.0000 H   0  0  0  0  0  0  0  0  0  0  0  0
    8.8767   -1.6093    0.0000 H   0  0  0  0  0  0  0  0  0  0  0  0
    6.9256    0.9796    0.0000 H   0  0  0  0  0  0  0  0  0  0  0  0
    6.1285    0.9796    0.0000 H   0  0  0  0  0  0  0  0  0  0  0  0
    9.2046   -1.0477    0.0000 H   0  0  0  0  0  0  0  0  0  0  0  0
    5.6610    0.6246    0.0000 H   0  0  0  0  0  0  0  0  0  0  0  0
    6.7612   -3.1173    0.0000 H   0  0  0  0  0  0  0  0  0  0  0  0
    7.1523   -2.4214    0.0000 H   0  0  0  0  0  0  0  0  0  0  0  0
    8.0131    1.0046    0.0000 H   0  0  0  0  0  0  0  0  0  0  0  0
    7.3931    1.6246    0.0000 H   0  0  0  0  0  0  0  0  0  0  0  0
    6.7731    1.0046    0.0000 H   0  0  0  0  0  0  0  0  0  0  0  0
    5.2478   -3.5406    0.0000 H   0  0  0  0  0  0  0  0  0  0  0  0
    6.0460   -3.5375    0.0000 H   0  0  0  0  0  0  0  0  0  0  0  0
    9.9229   -1.1154    0.0000 H   0  0  0  0  0  0  0  0  0  0  0  0
   10.5429   -0.4954    0.0000 H   0  0  0  0  0  0  0  0  0  0  0  0
    9.9229    0.1246    0.0000 H   0  0  0  0  0  0  0  0  0  0  0  0
    5.0005   -0.3524    0.0000 H   0  0  0  0  0  0  0  0  0  0  0  0
    4.2087    0.0243    0.0000 H   0  0  0  0  0  0  0  0  0  0  0  0
    3.8320   -0.7675    0.0000 H   0  0  0  0  0  0  0  0  0  0  0  0
    8.4476    1.7210    0.0000 H   0  0  0  0  0  0  0  0  0  0  0  0
    3.8361   -0.3183    0.0000 H   0  0  0  0  0  0  0  0  0  0  0  0
    4.7950    1.1246    0.0000 H   0  0  0  0  0  0  0  0  0  0  0  0
    3.8100   -3.7135    0.0000 H   0  0  0  0  0  0  0  0  0  0  0  0
    8.7757    2.4482    0.0000 H   0  0  0  0  0  0  0  0  0  0  0  0
    8.4502    1.7206    0.0000 H   0  0  0  0  0  0  0  0  0  0  0  0
    2.3430   -1.1499    0.0000 H   0  0  0  0  0  0  0  0  0  0  0  0
    9.7928    3.0935    0.0000 H   0  0  0  0  0  0  0  0  0  0  0  0
 10  1  1  6  0  0  0
 11  2  1  6  0  0  0
  2 50  1  0  0  0  0
 15  3  1  1  0  0  0
  3 52  1  0  0  0  0
  4 21  2  0  0  0  0
  5 26  1  0  0  0  0
  5 57  1  0  0  0  0
  6 28  2  0  0  0  0
  7  8  1  0  0  0  0
  7 11  1  0  0  0  0
  7 13  1  0  0  0  0
  7 18  1  1  0  0  0
  8  9  1  0  0  0  0
  8 12  1  0  0  0  0
  8 29  1  6  0  0  0
  9 10  1  0  0  0  0
  9 17  1  0  0  0  0
  9 30  1  1  0  0  0
 10 15  1  0  0  0  0
 10 16  1  0  0  0  0
 11 14  1  0  0  0  0
 11 21  1  0  0  0  0
 12 14  1  0  0  0  0
 12 31  1  0  0  0  0
 12 32  1  0  0  0  0
 13 15  1  0  0  0  0
 13 33  1  0  0  0  0
 13 34  1  0  0  0  0
 14 22  1  6  0  0  0
 14 35  1  0  0  0  0
 15 36  1  0  0  0  0
 16 20  1  0  0  0  0
 16 23  1  1  0  0  0
 16 24  1  0  0  0  0
 17 19  1  0  0  0  0
 17 37  1  0  0  0  0
 17 38  1  0  0  0  0
 18 39  1  0  0  0  0
 18 40  1  0  0  0  0
 18 41  1  0  0  0  0
 19 20  1  0  0  0  0
 19 42  1  0  0  0  0
 19 43  1  0  0  0  0
 20 25  2  0  0  0  0
 21 26  1  0  0  0  0
 22 44  1  0  0  0  0
 22 45  1  0  0  0  0
 22 46  1  0  0  0  0
 23 47  1  0  0  0  0
 23 48  1  0  0  0  0
 23 49  1  0  0  0  0
 24 27  2  0  0  0  0
 24 51  1  0  0  0  0
 25 28  1  0  0  0  0
 25 53  1  0  0  0  0
 26 54  1  0  0  0  0
 26 55  1  0  0  0  0
 27 28  1  0  0  0  0
 27 56  1  0  0  0  0
M  END
> <PUBCHEM_COMPOUND_CID>
5743

> <PUBCHEM_COMPOUND_CANONICALIZED>
1

> <PUBCHEM_CACTVS_COMPLEXITY>
805

> <PUBCHEM_CACTVS_HBOND_ACCEPTOR>
6

> <PUBCHEM_CACTVS_HBOND_DONOR>
3

> <PUBCHEM_CACTVS_ROTATABLE_BOND>
2

> <PUBCHEM_CACTVS_SUBSKEYS>
AAADceB4OQAAAAAAAAAAAAAAAAAAAYAAAAAwYIAAAAAAAGDAAAAAGwAACAAAD1SggAICAAAAAgCIAqBSAAIAAAAgAAAICAFAAEgAEBIAAQAAQAAFgAAIAYPIzPDPgAAAAAAAAADAAAYAADAAAYAADAAAAA==

> <PUBCHEM_IUPAC_OPENEYE_NAME>
(8S,9R,10S,11S,13S,14S,16R,17R)-9-fluoro-11,17-dihydroxy-17-(2-hydroxyacetyl)-10,13,16-trimethyl-6,7,8,11,12,14,15,16-octahydrocyclopenta[a]phenanthren-3-one

> <PUBCHEM_IUPAC_CAS_NAME>
(8S,9R,10S,11S,13S,14S,16R,17R)-9-fluoro-11,17-dihydroxy-17-(2-hydroxy-1-oxoethyl)-10,13,16-trimethyl-6,7,8,11,12,14,15,16-octahydrocyclopenta[a]phenanthren-3-one

> <PUBCHEM_IUPAC_NAME_MARKUP>
(8<I>S</I>,9<I>R</I>,10<I>S</I>,11<I>S</I>,13<I>S</I>,14<I>S</I>,16<I>R</I>,17<I>R</I>)-9-fluoro-11,17-dihydroxy-17-(2-hydroxyacetyl)-10,13,16-trimethyl-6,7,8,11,12,14,15,16-octahydrocyclopenta[a]phenanthren-3-one

> <PUBCHEM_IUPAC_NAME>
(8S,9R,10S,11S,13S,14S,16R,17R)-9-fluoro-11,17-dihydroxy-17-(2-hydroxyacetyl)-10,13,16-trimethyl-6,7,8,11,12,14,15,16-octahydrocyclopenta[a]phenanthren-3-one

> <PUBCHEM_IUPAC_SYSTEMATIC_NAME>
(8S,9R,10S,11S,13S,14S,16R,17R)-9-fluoranyl-10,13,16-trimethyl-11,17-bis(oxidanyl)-17-(2-oxidanylethanoyl)-6,7,8,11,12,14,15,16-octahydrocyclopenta[a]phenanthren-3-one

> <PUBCHEM_IUPAC_TRADITIONAL_NAME>
(8S,9R,10S,11S,13S,14S,16R,17R)-9-fluoro-17-glycoloyl-11,17-dihydroxy-10,13,16-trimethyl-6,7,8,11,12,14,15,16-octahydrocyclopenta[a]phenanthren-3-one

> <PUBCHEM_IUPAC_INCHI>
InChI=1S/C22H29FO5/c1-12-8-16-15-5-4-13-9-14(25)6-7-19(13,2)21(15,23)17(26)10-20(16,3)22(12,28)18(27)11-24/h6-7,9,12,15-17,24,26,28H,4-5,8,10-11H2,1-3H3/t12-,15+,16+,17+,19+,20+,21+,22+/m1/s1

> <PUBCHEM_IUPAC_INCHIKEY>
UREBDLICKHMUKA-CXSFZGCWSA-N

> <PUBCHEM_XLOGP3>
1.9

> <PUBCHEM_EXACT_MASS>
392.19990218

> <PUBCHEM_MOLECULAR_FORMULA>
C22H29FO5

> <PUBCHEM_MOLECULAR_WEIGHT>
392.5

> <PUBCHEM_OPENEYE_CAN_SMILES>
CC1CC2C3CCC4=CC(=O)C=CC4(C3(C(CC2(C1(C(=O)CO)O)C)O)F)C

> <PUBCHEM_OPENEYE_ISO_SMILES>
C[C@@H]1C[C@H]2[C@@H]3CCC4=CC(=O)C=C[C@@]4([C@]3([C@H](C[C@@]2([C@]1(C(=O)CO)O)C)O)F)C

> <PUBCHEM_CACTVS_TPSA>
94.8

> <PUBCHEM_MONOISOTOPIC_WEIGHT>
392.19990218

> <PUBCHEM_TOTAL_CHARGE>
0

> <PUBCHEM_HEAVY_ATOM_COUNT>
28

> <PUBCHEM_ATOM_DEF_STEREO_COUNT>
8

> <PUBCHEM_ATOM_UDEF_STEREO_COUNT>
0

> <PUBCHEM_BOND_DEF_STEREO_COUNT>
0

> <PUBCHEM_BOND_UDEF_STEREO_COUNT>
0

> <PUBCHEM_ISOTOPIC_ATOM_COUNT>
0

> <PUBCHEM_COMPONENT_COUNT>
1

> <PUBCHEM_CACTVS_TAUTO_COUNT>
9

> <PUBCHEM_COORDINATE_TYPE>
1
5
255

> <PUBCHEM_BONDANNOTATIONS>
10  1  6
14  22  6
16  23  5
11  2  6
15  3  5
7  18  5
8  29  6
9  30  5

$$$$
131411
  -OEChem-03012215082D

 54 56  0     0  0  0  0  0  0999 V2000
    2.5369   -1.8724    0.0000 Br   0  0  0  0  0  0  0  0  0  0  0  0
    8.1648   -1.7384    0.0000 S    0  0  0  0  0  0  0  0  0  0  0  0
    2.5369    0.1276    0.0000 O    0  0  0  0  0  0  0  0  0  0  0  0
    7.3704    1.0891    0.0000 O    0  0  0  0  0  0  0  0  0  0  0  0
    5.7240    1.6272    0.0000 O    0  0  0  0  0  0  0  0  0  0  0  0
    6.0812   -1.6771    0.0000 N    0  0  0  0  0  0  0  0  0  0  0  0
    3.4030    1.6276    0.0000 N    0  0  0  0  0  0  0  0  0  0  0  0
    5.1350   -0.3724    0.0000 C    0  0  0  0  0  0  0  0  0  0  0  0
    5.1350   -1.3724    0.0000 C    0  0  0  0  0  0  0  0  0  0  0  0
    6.6648   -0.8724    0.0000 C    0  0  0  0  0  0  0  0  0  0  0  0
    6.0812   -0.0676    0.0000 C    0  0  0  0  0  0  0  0  0  0  0  0
    4.2690    0.1276    0.0000 C    0  0  0  0  0  0  0  0  0  0  0  0
    4.2690    1.1276    0.0000 C    0  0  0  0  0  0  0  0  0  0  0  0
    4.2690   -1.8724    0.0000 C    0  0  0  0  0  0  0  0  0  0  0  0
    3.4030   -0.3724    0.0000 C    0  0  0  0  0  0  0  0  0  0  0  0
    7.6648   -0.8724    0.0000 C    0  0  0  0  0  0  0  0  0  0  0  0
    6.3919   -2.6276    0.0000 C    0  0  0  0  0  0  0  0  0  0  0  0
    3.4030   -1.3724    0.0000 C    0  0  0  0  0  0  0  0  0  0  0  0
    6.3919    0.8829    0.0000 C    0  0  0  0  0  0  0  0  0  0  0  0
    3.4030    2.6276    0.0000 C    0  0  0  0  0  0  0  0  0  0  0  0
    2.5369    1.1276    0.0000 C    0  0  0  0  0  0  0  0  0  0  0  0
    9.1648   -1.7384    0.0000 C    0  0  0  0  0  0  0  0  0  0  0  0
    7.6811    2.0396    0.0000 C    0  0  0  0  0  0  0  0  0  0  0  0
    9.6648   -2.6044    0.0000 C    0  0  0  0  0  0  0  0  0  0  0  0
    9.6648   -0.8724    0.0000 C    0  0  0  0  0  0  0  0  0  0  0  0
    8.6596    2.2458    0.0000 C    0  0  0  0  0  0  0  0  0  0  0  0
   10.6648   -2.6044    0.0000 C    0  0  0  0  0  0  0  0  0  0  0  0
   10.6648   -0.8724    0.0000 C    0  0  0  0  0  0  0  0  0  0  0  0
   11.1648   -1.7384    0.0000 C    0  0  0  0  0  0  0  0  0  0  0  0
    4.8796    1.0200    0.0000 H    0  0  0  0  0  0  0  0  0  0  0  0
    4.4810    1.7102    0.0000 H    0  0  0  0  0  0  0  0  0  0  0  0
    4.2690   -2.4924    0.0000 H    0  0  0  0  0  0  0  0  0  0  0  0
    8.2474   -0.6603    0.0000 H    0  0  0  0  0  0  0  0  0  0  0  0
    7.5572   -0.2618    0.0000 H    0  0  0  0  0  0  0  0  0  0  0  0
    5.8026   -2.8202    0.0000 H    0  0  0  0  0  0  0  0  0  0  0  0
    6.5845   -3.2170    0.0000 H    0  0  0  0  0  0  0  0  0  0  0  0
    6.9812   -2.4350    0.0000 H    0  0  0  0  0  0  0  0  0  0  0  0
    4.0230    2.6276    0.0000 H    0  0  0  0  0  0  0  0  0  0  0  0
    3.4030    3.2476    0.0000 H    0  0  0  0  0  0  0  0  0  0  0  0
    2.7830    2.6276    0.0000 H    0  0  0  0  0  0  0  0  0  0  0  0
    2.2269    1.6646    0.0000 H    0  0  0  0  0  0  0  0  0  0  0  0
    2.0000    0.8176    0.0000 H    0  0  0  0  0  0  0  0  0  0  0  0
    2.8469    0.5907    0.0000 H    0  0  0  0  0  0  0  0  0  0  0  0
    2.0000   -0.1824    0.0000 H    0  0  0  0  0  0  0  0  0  0  0  0
    7.6605    2.6593    0.0000 H    0  0  0  0  0  0  0  0  0  0  0  0
    7.0672    2.1270    0.0000 H    0  0  0  0  0  0  0  0  0  0  0  0
    9.3548   -3.1414    0.0000 H    0  0  0  0  0  0  0  0  0  0  0  0
    9.3548   -0.3354    0.0000 H    0  0  0  0  0  0  0  0  0  0  0  0
    8.7874    1.6392    0.0000 H    0  0  0  0  0  0  0  0  0  0  0  0
    9.2662    2.3737    0.0000 H    0  0  0  0  0  0  0  0  0  0  0  0
    8.5317    2.8525    0.0000 H    0  0  0  0  0  0  0  0  0  0  0  0
   10.9748   -3.1414    0.0000 H    0  0  0  0  0  0  0  0  0  0  0  0
   10.9748   -0.3354    0.0000 H    0  0  0  0  0  0  0  0  0  0  0  0
   11.7848   -1.7384    0.0000 H    0  0  0  0  0  0  0  0  0  0  0  0
  1 18  1  0  0  0  0
  2 16  1  0  0  0  0
  2 22  1  0  0  0  0
  3 15  1  0  0  0  0
  3 44  1  0  0  0  0
  4 19  1  0  0  0  0
  4 23  1  0  0  0  0
  5 19  2  0  0  0  0
  6  9  1  0  0  0  0
  6 10  1  0  0  0  0
  6 17  1  0  0  0  0
  7 13  1  0  0  0  0
  7 20  1  0  0  0  0
  7 21  1  0  0  0  0
  8  9  1  0  0  0  0
  8 11  1  0  0  0  0
  8 12  2  0  0  0  0
  9 14  2  0  0  0  0
 10 11  2  0  0  0  0
 10 16  1  0  0  0  0
 11 19  1  0  0  0  0
 12 13  1  0  0  0  0
 12 15  1  0  0  0  0
 13 30  1  0  0  0  0
 13 31  1  0  0  0  0
 14 18  1  0  0  0  0
 14 32  1  0  0  0  0
 15 18  2  0  0  0  0
 16 33  1  0  0  0  0
 16 34  1  0  0  0  0
 17 35  1  0  0  0  0
 17 36  1  0  0  0  0
 17 37  1  0  0  0  0
 20 38  1  0  0  0  0
 20 39  1  0  0  0  0
 20 40  1  0  0  0  0
 21 41  1  0  0  0  0
 21 42  1  0  0  0  0
 21 43  1  0  0  0  0
 22 24  2  0  0  0  0
 22 25  1  0  0  0  0
 23 26  1  0  0  0  0
 23 45  1  0  0  0  0
 23 46  1  0  0  0  0
 24 27  1  0  0  0  0
 24 47  1  0  0  0  0
 25 28  2  0  0  0  0
 25 48  1  0  0  0  0
 26 49  1  0  0  0  0
 26 50  1  0  0  0  0
 26 51  1  0  0  0  0
 27 29  2  0  0  0  0
 27 52  1  0  0  0  0
 28 29  1  0  0  0  0
 28 53  1  0  0  0  0
 29 54  1  0  0  0  0
M  END
> <PUBCHEM_COMPOUND_CID>
131411

> <PUBCHEM_COMPOUND_CANONICALIZED>
1

> <PUBCHEM_CACTVS_COMPLEXITY>
546

> <PUBCHEM_CACTVS_HBOND_ACCEPTOR>
5

> <PUBCHEM_CACTVS_HBOND_DONOR>
1

> <PUBCHEM_CACTVS_ROTATABLE_BOND>
8

> <PUBCHEM_CACTVS_SUBSKEYS>
AAADceB7MABAEAAAAAAAAAAAAAAAAWAAAAAwYAAAAAAAAFgB9AAAHgRACAABrAzl3gayz/MMFgioAyTyTACCgCAlKjQI2Dk8bPgIJnritZuGcYhmwBHo+1e8/f/OgkABUAEaBAAEgAKgAjQIAAAAAAAAAA==

> <PUBCHEM_IUPAC_OPENEYE_NAME>
ethyl 6-bromo-4-[(dimethylamino)methyl]-5-hydroxy-1-methyl-2-(phenylsulfanylmethyl)indole-3-carboxylate

> <PUBCHEM_IUPAC_CAS_NAME>
6-bromo-4-[(dimethylamino)methyl]-5-hydroxy-1-methyl-2-[(phenylthio)methyl]-3-indolecarboxylic acid ethyl ester

> <PUBCHEM_IUPAC_NAME_MARKUP>
ethyl 6-bromo-4-[(dimethylamino)methyl]-5-hydroxy-1-methyl-2-(phenylsulfanylmethyl)indole-3-carboxylate

> <PUBCHEM_IUPAC_NAME>
ethyl 6-bromo-4-[(dimethylamino)methyl]-5-hydroxy-1-methyl-2-(phenylsulfanylmethyl)indole-3-carboxylate

> <PUBCHEM_IUPAC_SYSTEMATIC_NAME>
ethyl 6-bromanyl-4-[(dimethylamino)methyl]-1-methyl-5-oxidanyl-2-(phenylsulfanylmethyl)indole-3-carboxylate

> <PUBCHEM_IUPAC_TRADITIONAL_NAME>
6-bromo-4-[(dimethylamino)methyl]-5-hydroxy-1-methyl-2-[(phenylthio)methyl]indole-3-carboxylic acid ethyl ester

> <PUBCHEM_IUPAC_INCHI>
InChI=1S/C22H25BrN2O3S/c1-5-28-22(27)20-18(13-29-14-9-7-6-8-10-14)25(4)17-11-16(23)21(26)15(19(17)20)12-24(2)3/h6-11,26H,5,12-13H2,1-4H3

> <PUBCHEM_IUPAC_INCHIKEY>
KCFYEAOKVJSACF-UHFFFAOYSA-N

> <PUBCHEM_XLOGP3_AA>
4.4

> <PUBCHEM_EXACT_MASS>
476.07693

> <PUBCHEM_MOLECULAR_FORMULA>
C22H25BrN2O3S

> <PUBCHEM_MOLECULAR_WEIGHT>
477.4

> <PUBCHEM_OPENEYE_CAN_SMILES>
CCOC(=O)C1=C(N(C2=CC(=C(C(=C21)CN(C)C)O)Br)C)CSC3=CC=CC=C3

> <PUBCHEM_OPENEYE_ISO_SMILES>
CCOC(=O)C1=C(N(C2=CC(=C(C(=C21)CN(C)C)O)Br)C)CSC3=CC=CC=C3

> <PUBCHEM_CACTVS_TPSA>
80

> <PUBCHEM_MONOISOTOPIC_WEIGHT>
476.07693

> <PUBCHEM_TOTAL_CHARGE>
0

> <PUBCHEM_HEAVY_ATOM_COUNT>
29

> <PUBCHEM_ATOM_DEF_STEREO_COUNT>
0

> <PUBCHEM_ATOM_UDEF_STEREO_COUNT>
0

> <PUBCHEM_BOND_DEF_STEREO_COUNT>
0

> <PUBCHEM_BOND_UDEF_STEREO_COUNT>
0

> <PUBCHEM_ISOTOPIC_ATOM_COUNT>
0

> <PUBCHEM_COMPONENT_COUNT>
1

> <PUBCHEM_CACTVS_TAUTO_COUNT>
-1

> <PUBCHEM_COORDINATE_TYPE>
1
5
255

> <PUBCHEM_BONDANNOTATIONS>
10  11  8
12  15  8
14  18  8
15  18  8
22  24  8
22  25  8
24  27  8
25  28  8
27  29  8
28  29  8
6  10  8
6  9  8
8  11  8
8  12  8
8  9  8
9  14  8

$$$$
6741
  -OEChem-03012215082D

 57 60  0     1  0  0  0  0  0999 V2000
    8.0319    2.3480    0.0000 O   0  0  0  0  0  0  0  0  0  0  0  0
    4.7950    1.5917    0.0000 O   0  0  0  0  0  0  0  0  0  0  0  0
    9.0465    2.9775    0.0000 O   0  0  0  0  0  0  0  0  0  0  0  0
   10.8722    2.1609    0.0000 O   0  0  0  0  0  0  0  0  0  0  0  0
    2.0000   -1.9606    0.0000 O   0  0  0  0  0  0  0  0  0  0  0  0
    7.3931    1.0917    0.0000 C   0  0  1  0  0  0  0  0  0  0  0  0
    7.3931    0.0917    0.0000 C   0  0  2  0  0  0  0  0  0  0  0  0
    6.5271   -0.4083    0.0000 C   0  0  1  0  0  0  0  0  0  0  0  0
    5.6610    0.0917    0.0000 C   0  0  2  0  0  0  0  0  0  0  0  0
    8.3393    1.3964    0.0000 C   0  0  1  0  0  0  0  0  0  0  0  0
    6.5271    1.5917    0.0000 C   0  0  0  0  0  0  0  0  0  0  0  0
    5.6610    1.0917    0.0000 C   0  0  2  0  0  0  0  0  0  0  0  0
    8.3393   -0.2130    0.0000 C   0  0  0  0  0  0  0  0  0  0  0  0
    4.7510   -0.4151    0.0000 C   0  0  1  0  0  0  0  0  0  0  0  0
    8.9229    0.5917    0.0000 C   0  0  0  0  0  0  0  0  0  0  0  0
    6.5431   -1.4498    0.0000 C   0  0  0  0  0  0  0  0  0  0  0  0
    5.6451   -1.9775    0.0000 C   0  0  1  0  0  0  0  0  0  0  0  0
    7.3931    2.0917    0.0000 C   0  0  0  0  0  0  0  0  0  0  0  0
    4.7430   -1.4567    0.0000 C   0  0  0  0  0  0  0  0  0  0  0  0
    9.1493    1.9828    0.0000 C   0  0  0  0  0  0  0  0  0  0  0  0
    4.7587    0.5848    0.0000 C   0  0  0  0  0  0  0  0  0  0  0  0
    3.8242    0.1490    0.0000 C   0  0  0  0  0  0  0  0  0  0  0  0
    5.6489   -2.9775    0.0000 C   0  0  0  0  0  0  0  0  0  0  0  0
    3.8076   -2.0064    0.0000 C   0  0  0  0  0  0  0  0  0  0  0  0
   10.0622    1.5745    0.0000 C   0  0  0  0  0  0  0  0  0  0  0  0
    2.8763   -0.3790    0.0000 C   0  0  0  0  0  0  0  0  0  0  0  0
    2.8680   -1.4640    0.0000 C   0  0  0  0  0  0  0  0  0  0  0  0
    7.4830   -0.7535    0.0000 H   0  0  0  0  0  0  0  0  0  0  0  0
    7.2664   -0.8276    0.0000 H   0  0  0  0  0  0  0  0  0  0  0  0
    6.3972    0.5167    0.0000 H   0  0  0  0  0  0  0  0  0  0  0  0
    6.9256    2.0667    0.0000 H   0  0  0  0  0  0  0  0  0  0  0  0
    6.1285    2.0667    0.0000 H   0  0  0  0  0  0  0  0  0  0  0  0
    5.6610    1.7117    0.0000 H   0  0  0  0  0  0  0  0  0  0  0  0
    8.0883   -0.7799    0.0000 H   0  0  0  0  0  0  0  0  0  0  0  0
    8.8767   -0.5222    0.0000 H   0  0  0  0  0  0  0  0  0  0  0  0
    9.3838    0.1770    0.0000 H   0  0  0  0  0  0  0  0  0  0  0  0
    9.3838    1.0064    0.0000 H   0  0  0  0  0  0  0  0  0  0  0  0
    6.7612   -2.0302    0.0000 H   0  0  0  0  0  0  0  0  0  0  0  0
    7.1523   -1.3343    0.0000 H   0  0  0  0  0  0  0  0  0  0  0  0
    5.1087   -2.2886    0.0000 H   0  0  0  0  0  0  0  0  0  0  0  0
    8.0131    2.0917    0.0000 H   0  0  0  0  0  0  0  0  0  0  0  0
    7.3931    2.7117    0.0000 H   0  0  0  0  0  0  0  0  0  0  0  0
    6.7731    2.0917    0.0000 H   0  0  0  0  0  0  0  0  0  0  0  0
    5.3787    0.5801    0.0000 H   0  0  0  0  0  0  0  0  0  0  0  0
    4.7635    1.2048    0.0000 H   0  0  0  0  0  0  0  0  0  0  0  0
    4.1388    0.5896    0.0000 H   0  0  0  0  0  0  0  0  0  0  0  0
    3.8361    0.7688    0.0000 H   0  0  0  0  0  0  0  0  0  0  0  0
    8.4476    2.8081    0.0000 H   0  0  0  0  0  0  0  0  0  0  0  0
    4.7950    2.2117    0.0000 H   0  0  0  0  0  0  0  0  0  0  0  0
    5.0289   -2.9799    0.0000 H   0  0  0  0  0  0  0  0  0  0  0  0
    5.6513   -3.5975    0.0000 H   0  0  0  0  0  0  0  0  0  0  0  0
    6.2689   -2.9752    0.0000 H   0  0  0  0  0  0  0  0  0  0  0  0
    3.8100   -2.6264    0.0000 H   0  0  0  0  0  0  0  0  0  0  0  0
    9.7146    1.0611    0.0000 H   0  0  0  0  0  0  0  0  0  0  0  0
   10.5074    1.1431    0.0000 H   0  0  0  0  0  0  0  0  0  0  0  0
    2.3430   -0.0628    0.0000 H   0  0  0  0  0  0  0  0  0  0  0  0
   11.4382    1.9078    0.0000 H   0  0  0  0  0  0  0  0  0  0  0  0
 10  1  1  6  0  0  0
  1 48  1  0  0  0  0
 12  2  1  1  0  0  0
  2 49  1  0  0  0  0
  3 20  2  0  0  0  0
  4 25  1  0  0  0  0
  4 57  1  0  0  0  0
  5 27  2  0  0  0  0
  6  7  1  0  0  0  0
  6 10  1  0  0  0  0
  6 11  1  0  0  0  0
  6 18  1  1  0  0  0
  7  8  1  0  0  0  0
  7 13  1  0  0  0  0
  7 28  1  6  0  0  0
  8  9  1  0  0  0  0
  8 16  1  0  0  0  0
  8 29  1  1  0  0  0
  9 12  1  0  0  0  0
  9 14  1  0  0  0  0
  9 30  1  6  0  0  0
 10 15  1  0  0  0  0
 10 20  1  0  0  0  0
 11 12  1  0  0  0  0
 11 31  1  0  0  0  0
 11 32  1  0  0  0  0
 12 33  1  0  0  0  0
 13 15  1  0  0  0  0
 13 34  1  0  0  0  0
 13 35  1  0  0  0  0
 14 19  1  0  0  0  0
 14 21  1  1  0  0  0
 14 22  1  0  0  0  0
 15 36  1  0  0  0  0
 15 37  1  0  0  0  0
 16 17  1  0  0  0  0
 16 38  1  0  0  0  0
 16 39  1  0  0  0  0
 17 19  1  0  0  0  0
 17 23  1  6  0  0  0
 17 40  1  0  0  0  0
 18 41  1  0  0  0  0
 18 42  1  0  0  0  0
 18 43  1  0  0  0  0
 19 24  2  0  0  0  0
 20 25  1  0  0  0  0
 21 44  1  0  0  0  0
 21 45  1  0  0  0  0
 21 46  1  0  0  0  0
 22 26  2  0  0  0  0
 22 47  1  0  0  0  0
 23 50  1  0  0  0  0
 23 51  1  0  0  0  0
 23 52  1  0  0  0  0
 24 27  1  0  0  0  0
 24 53  1  0  0  0  0
 25 54  1  0  0  0  0
 25 55  1  0  0  0  0
 26 27  1  0  0  0  0
 26 56  1  0  0  0  0
M  END
> <PUBCHEM_COMPOUND_CID>
6741

> <PUBCHEM_COMPOUND_CANONICALIZED>
1

> <PUBCHEM_CACTVS_COMPLEXITY>
754

> <PUBCHEM_CACTVS_HBOND_ACCEPTOR>
5

> <PUBCHEM_CACTVS_HBOND_DONOR>
3

> <PUBCHEM_CACTVS_ROTATABLE_BOND>
2

> <PUBCHEM_CACTVS_SUBSKEYS>
AAADceB4OAAAAAAAAAAAAAAAAAAAAYAAAAAwYIAAAAAAAGDAAAAAGgAACAAAD1SggAICAAAAAgCIAqBSAAIAAAAgAAAICAFAAEgAEBIAAQAAQAAFgAAIAYPIzPDPgAAAAAAAAADAAAYAADAAAYAADAAAAA==

> <PUBCHEM_IUPAC_OPENEYE_NAME>
(6S,8S,9S,10R,11S,13S,14S,17R)-11,17-dihydroxy-17-(2-hydroxyacetyl)-6,10,13-trimethyl-7,8,9,11,12,14,15,16-octahydro-6H-cyclopenta[a]phenanthren-3-one

> <PUBCHEM_IUPAC_CAS_NAME>
(6S,8S,9S,10R,11S,13S,14S,17R)-11,17-dihydroxy-17-(2-hydroxy-1-oxoethyl)-6,10,13-trimethyl-7,8,9,11,12,14,15,16-octahydro-6H-cyclopenta[a]phenanthren-3-one

> <PUBCHEM_IUPAC_NAME_MARKUP>
(6<I>S</I>,8<I>S</I>,9<I>S</I>,10<I>R</I>,11<I>S</I>,13<I>S</I>,14<I>S</I>,17<I>R</I>)-11,17-dihydroxy-17-(2-hydroxyacetyl)-6,10,13-trimethyl-7,8,9,11,12,14,15,16-octahydro-6<I>H</I>-cyclopenta[a]phenanthren-3-one

> <PUBCHEM_IUPAC_NAME>
(6S,8S,9S,10R,11S,13S,14S,17R)-11,17-dihydroxy-17-(2-hydroxyacetyl)-6,10,13-trimethyl-7,8,9,11,12,14,15,16-octahydro-6H-cyclopenta[a]phenanthren-3-one

> <PUBCHEM_IUPAC_SYSTEMATIC_NAME>
(6S,8S,9S,10R,11S,13S,14S,17R)-6,10,13-trimethyl-11,17-bis(oxidanyl)-17-(2-oxidanylethanoyl)-7,8,9,11,12,14,15,16-octahydro-6H-cyclopenta[a]phenanthren-3-one

> <PUBCHEM_IUPAC_TRADITIONAL_NAME>
(6S,8S,9S,10R,11S,13S,14S,17R)-17-glycoloyl-11,17-dihydroxy-6,10,13-trimethyl-7,8,9,11,12,14,15,16-octahydro-6H-cyclopenta[a]phenanthren-3-one

> <PUBCHEM_IUPAC_INCHI>
InChI=1S/C22H30O5/c1-12-8-14-15-5-7-22(27,18(26)11-23)21(15,3)10-17(25)19(14)20(2)6-4-13(24)9-16(12)20/h4,6,9,12,14-15,17,19,23,25,27H,5,7-8,10-11H2,1-3H3/t12-,14-,15-,17-,19+,20-,21-,22-/m0/s1

> <PUBCHEM_IUPAC_INCHIKEY>
VHRSUDSXCMQTMA-PJHHCJLFSA-N

> <PUBCHEM_XLOGP3>
1.9

> <PUBCHEM_EXACT_MASS>
374.20932405

> <PUBCHEM_MOLECULAR_FORMULA>
C22H30O5

> <PUBCHEM_MOLECULAR_WEIGHT>
374.5

> <PUBCHEM_OPENEYE_CAN_SMILES>
CC1CC2C3CCC(C3(CC(C2C4(C1=CC(=O)C=C4)C)O)C)(C(=O)CO)O

> <PUBCHEM_OPENEYE_ISO_SMILES>
C[C@H]1C[C@H]2[C@@H]3CC[C@@]([C@]3(C[C@@H]([C@@H]2[C@@]4(C1=CC(=O)C=C4)C)O)C)(C(=O)CO)O

> <PUBCHEM_CACTVS_TPSA>
94.8

> <PUBCHEM_MONOISOTOPIC_WEIGHT>
374.20932405

> <PUBCHEM_TOTAL_CHARGE>
0

> <PUBCHEM_HEAVY_ATOM_COUNT>
27

> <PUBCHEM_ATOM_DEF_STEREO_COUNT>
8

> <PUBCHEM_ATOM_UDEF_STEREO_COUNT>
0

> <PUBCHEM_BOND_DEF_STEREO_COUNT>
0

> <PUBCHEM_BOND_UDEF_STEREO_COUNT>
0

> <PUBCHEM_ISOTOPIC_ATOM_COUNT>
0

> <PUBCHEM_COMPONENT_COUNT>
1

> <PUBCHEM_CACTVS_TAUTO_COUNT>
9

> <PUBCHEM_COORDINATE_TYPE>
1
5
255

> <PUBCHEM_BONDANNOTATIONS>
10  1  6
14  21  5
17  23  6
12  2  5
6  18  5
7  28  6
8  29  5
9  30  6

$$$$
53361968
  -OEChem-03012215082D

105111  0     1  0  0  0  0  0999 V2000
   12.8499    0.2676    0.0000 S   0  0  0  0  0  0  0  0  0  0  0  0
    9.3056    0.4629    0.0000 S   0  0  0  0  0  0  0  0  0  0  0  0
    4.6095    5.0017    0.0000 O   0  0  0  0  0  0  0  0  0  0  0  0
    2.8037    5.5839    0.0000 O   0  0  0  0  0  0  0  0  0  0  0  0
    4.1095    2.4629    0.0000 O   0  0  0  0  0  0  0  0  0  0  0  0
    6.7075    1.9629    0.0000 O   0  0  0  0  0  0  0  0  0  0  0  0
    5.8415    2.4629    0.0000 O   0  0  0  0  0  0  0  0  0  0  0  0
    8.8056   -0.4032    0.0000 O   0  0  0  0  0  0  0  0  0  0  0  0
    9.8056    1.3289    0.0000 O   0  0  0  0  0  0  0  0  0  0  0  0
   15.9335   -3.1352    0.0000 N   0  0  0  0  0  0  0  0  0  0  0  0
   14.4335   -0.5371    0.0000 N   0  0  0  0  0  0  0  0  0  0  0  0
    4.9755    0.9629    0.0000 N   0  0  0  0  0  0  0  0  0  0  0  0
   12.8499   -1.3419    0.0000 N   0  0  0  0  0  0  0  0  0  0  0  0
    8.4396    0.9629    0.0000 N   0  0  3  0  0  0  0  0  0  0  0  0
   16.4335   -4.0012    0.0000 C   0  0  0  0  0  0  0  0  0  0  0  0
   16.0268   -4.9148    0.0000 C   0  0  0  0  0  0  0  0  0  0  0  0
   17.4280   -4.1058    0.0000 C   0  0  0  0  0  0  0  0  0  0  0  0
   16.7699   -5.5839    0.0000 C   0  0  0  0  0  0  0  0  0  0  0  0
   17.6360   -5.0839    0.0000 C   0  0  0  0  0  0  0  0  0  0  0  0
   16.4335   -2.2692    0.0000 C   0  0  0  0  0  0  0  0  0  0  0  0
   14.9335   -3.1352    0.0000 C   0  0  0  0  0  0  0  0  0  0  0  0
   14.9335   -1.4032    0.0000 C   0  0  0  0  0  0  0  0  0  0  0  0
   15.9335   -1.4032    0.0000 C   0  0  0  0  0  0  0  0  0  0  0  0
   14.4335   -2.2692    0.0000 C   0  0  0  0  0  0  0  0  0  0  0  0
    3.3004    4.0506    0.0000 C   0  0  2  0  0  0  0  0  0  0  0  0
    3.6095    5.0017    0.0000 C   0  0  1  0  0  0  0  0  0  0  0  0
    4.1095    3.4629    0.0000 C   0  0  2  0  0  0  0  0  0  0  0  0
    2.3064    4.0532    0.0000 C   0  0  0  0  0  0  0  0  0  0  0  0
    4.9185    4.0506    0.0000 C   0  0  0  0  0  0  0  0  0  0  0  0
    2.0000    4.9989    0.0000 C   0  0  0  0  0  0  0  0  0  0  0  0
   13.4335   -0.5371    0.0000 C   0  0  0  0  0  0  0  0  0  0  0  0
    4.9755    1.9629    0.0000 C   0  0  0  0  0  0  0  0  0  0  0  0
    5.8415    0.4629    0.0000 C   0  0  2  0  0  0  0  0  0  0  0  0
    6.7075    0.9629    0.0000 C   0  0  1  0  0  0  0  0  0  0  0  0
    7.5736    0.4629    0.0000 C   0  0  0  0  0  0  0  0  0  0  0  0
    5.8415   -0.5371    0.0000 C   0  0  0  0  0  0  0  0  0  0  0  0
   11.9037   -0.0371    0.0000 C   0  0  0  0  0  0  0  0  0  0  0  0
   11.9037   -1.0371    0.0000 C   0  0  0  0  0  0  0  0  0  0  0  0
    8.4396    1.9629    0.0000 C   0  0  0  0  0  0  0  0  0  0  0  0
   10.1716   -0.0371    0.0000 C   0  0  0  0  0  0  0  0  0  0  0  0
   11.0377    0.4629    0.0000 C   0  0  0  0  0  0  0  0  0  0  0  0
    9.3056    2.4629    0.0000 C   0  0  0  0  0  0  0  0  0  0  0  0
   11.0377   -1.5371    0.0000 C   0  0  0  0  0  0  0  0  0  0  0  0
    4.9755   -1.0371    0.0000 C   0  0  0  0  0  0  0  0  0  0  0  0
   10.1716   -1.0371    0.0000 C   0  0  0  0  0  0  0  0  0  0  0  0
    9.3056    3.4629    0.0000 C   0  0  0  0  0  0  0  0  0  0  0  0
   10.1716    1.9629    0.0000 C   0  0  0  0  0  0  0  0  0  0  0  0
    4.9755   -2.0371    0.0000 C   0  0  0  0  0  0  0  0  0  0  0  0
    4.1095   -0.5371    0.0000 C   0  0  0  0  0  0  0  0  0  0  0  0
    4.1095   -2.5371    0.0000 C   0  0  0  0  0  0  0  0  0  0  0  0
    3.2434   -1.0371    0.0000 C   0  0  0  0  0  0  0  0  0  0  0  0
    3.2434   -2.0371    0.0000 C   0  0  0  0  0  0  0  0  0  0  0  0
   15.8144   -4.0337    0.0000 H   0  0  0  0  0  0  0  0  0  0  0  0
   15.4898   -4.6048    0.0000 H   0  0  0  0  0  0  0  0  0  0  0  0
   15.6624   -5.4164    0.0000 H   0  0  0  0  0  0  0  0  0  0  0  0
   18.0446   -4.0410    0.0000 H   0  0  0  0  0  0  0  0  0  0  0  0
   17.4280   -3.4858    0.0000 H   0  0  0  0  0  0  0  0  0  0  0  0
   16.3092   -5.9988    0.0000 H   0  0  0  0  0  0  0  0  0  0  0  0
   17.1344   -6.0855    0.0000 H   0  0  0  0  0  0  0  0  0  0  0  0
   17.8881   -5.6503    0.0000 H   0  0  0  0  0  0  0  0  0  0  0  0
   18.2256   -4.8923    0.0000 H   0  0  0  0  0  0  0  0  0  0  0  0
   16.9085   -2.6677    0.0000 H   0  0  0  0  0  0  0  0  0  0  0  0
   16.9085   -1.8707    0.0000 H   0  0  0  0  0  0  0  0  0  0  0  0
   14.3509   -3.3473    0.0000 H   0  0  0  0  0  0  0  0  0  0  0  0
   15.0412   -3.7458    0.0000 H   0  0  0  0  0  0  0  0  0  0  0  0
   14.3135   -1.4032    0.0000 H   0  0  0  0  0  0  0  0  0  0  0  0
   16.5161   -1.1911    0.0000 H   0  0  0  0  0  0  0  0  0  0  0  0
   15.8259   -0.7926    0.0000 H   0  0  0  0  0  0  0  0  0  0  0  0
   13.9586   -1.8707    0.0000 H   0  0  0  0  0  0  0  0  0  0  0  0
   13.9586   -2.6677    0.0000 H   0  0  0  0  0  0  0  0  0  0  0  0
    3.0367    3.2426    0.0000 H   0  0  0  0  0  0  0  0  0  0  0  0
    3.8711    5.8104    0.0000 H   0  0  0  0  0  0  0  0  0  0  0  0
    3.5570    3.1814    0.0000 H   0  0  0  0  0  0  0  0  0  0  0  0
    1.6997    3.9252    0.0000 H   0  0  0  0  0  0  0  0  0  0  0  0
    2.3699    3.4365    0.0000 H   0  0  0  0  0  0  0  0  0  0  0  0
    5.2285    3.5137    0.0000 H   0  0  0  0  0  0  0  0  0  0  0  0
    5.4849    4.3028    0.0000 H   0  0  0  0  0  0  0  0  0  0  0  0
    1.6898    5.5358    0.0000 H   0  0  0  0  0  0  0  0  0  0  0  0
    1.4335    4.7469    0.0000 H   0  0  0  0  0  0  0  0  0  0  0  0
   14.7435   -0.0002    0.0000 H   0  0  0  0  0  0  0  0  0  0  0  0
    5.8415    1.0829    0.0000 H   0  0  0  0  0  0  0  0  0  0  0  0
    7.2445    1.2729    0.0000 H   0  0  0  0  0  0  0  0  0  0  0  0
    4.4386    0.6529    0.0000 H   0  0  0  0  0  0  0  0  0  0  0  0
    7.1750   -0.0121    0.0000 H   0  0  0  0  0  0  0  0  0  0  0  0
    7.9721   -0.0121    0.0000 H   0  0  0  0  0  0  0  0  0  0  0  0
    6.0536   -1.1198    0.0000 H   0  0  0  0  0  0  0  0  0  0  0  0
    6.4521   -0.4295    0.0000 H   0  0  0  0  0  0  0  0  0  0  0  0
    8.2275    2.5455    0.0000 H   0  0  0  0  0  0  0  0  0  0  0  0
    7.8290    1.8552    0.0000 H   0  0  0  0  0  0  0  0  0  0  0  0
    8.7687    2.7729    0.0000 H   0  0  0  0  0  0  0  0  0  0  0  0
   11.0377    1.0829    0.0000 H   0  0  0  0  0  0  0  0  0  0  0  0
   11.0377   -2.1571    0.0000 H   0  0  0  0  0  0  0  0  0  0  0  0
    9.6347   -1.3471    0.0000 H   0  0  0  0  0  0  0  0  0  0  0  0
    7.2445    2.2729    0.0000 H   0  0  0  0  0  0  0  0  0  0  0  0
    9.9256    3.4629    0.0000 H   0  0  0  0  0  0  0  0  0  0  0  0
    9.3056    4.0829    0.0000 H   0  0  0  0  0  0  0  0  0  0  0  0
    8.6856    3.4629    0.0000 H   0  0  0  0  0  0  0  0  0  0  0  0
    9.8616    1.4259    0.0000 H   0  0  0  0  0  0  0  0  0  0  0  0
   10.7086    1.6529    0.0000 H   0  0  0  0  0  0  0  0  0  0  0  0
   10.4816    2.4998    0.0000 H   0  0  0  0  0  0  0  0  0  0  0  0
    5.5124   -2.3471    0.0000 H   0  0  0  0  0  0  0  0  0  0  0  0
    4.1095    0.0829    0.0000 H   0  0  0  0  0  0  0  0  0  0  0  0
    4.1095   -3.1571    0.0000 H   0  0  0  0  0  0  0  0  0  0  0  0
    2.7065   -0.7271    0.0000 H   0  0  0  0  0  0  0  0  0  0  0  0
    2.7065   -2.3471    0.0000 H   0  0  0  0  0  0  0  0  0  0  0  0
  1 31  1  0  0  0  0
  1 37  1  0  0  0  0
  2  8  2  0  0  0  0
  2  9  2  0  0  0  0
  2 14  1  0  0  0  0
  2 40  1  0  0  0  0
  3 26  1  0  0  0  0
  3 29  1  0  0  0  0
  4 26  1  0  0  0  0
  4 30  1  0  0  0  0
 27  5  1  6  0  0  0
  5 32  1  0  0  0  0
 34  6  1  6  0  0  0
  6 94  1  0  0  0  0
  7 32  2  0  0  0  0
 10 15  1  0  0  0  0
 10 20  1  0  0  0  0
 10 21  1  0  0  0  0
 11 22  1  0  0  0  0
 11 31  1  0  0  0  0
 11 80  1  0  0  0  0
 12 32  1  0  0  0  0
 33 12  1  6  0  0  0
 12 83  1  0  0  0  0
 13 31  2  0  0  0  0
 13 38  1  0  0  0  0
 14 35  1  0  0  0  0
 14 39  1  0  0  0  0
 15 16  1  0  0  0  0
 15 17  1  0  0  0  0
 15 53  1  0  0  0  0
 16 18  1  0  0  0  0
 16 54  1  0  0  0  0
 16 55  1  0  0  0  0
 17 19  1  0  0  0  0
 17 56  1  0  0  0  0
 17 57  1  0  0  0  0
 18 19  1  0  0  0  0
 18 58  1  0  0  0  0
 18 59  1  0  0  0  0
 19 60  1  0  0  0  0
 19 61  1  0  0  0  0
 20 23  1  0  0  0  0
 20 62  1  0  0  0  0
 20 63  1  0  0  0  0
 21 24  1  0  0  0  0
 21 64  1  0  0  0  0
 21 65  1  0  0  0  0
 22 23  1  0  0  0  0
 22 24  1  0  0  0  0
 22 66  1  0  0  0  0
 23 67  1  0  0  0  0
 23 68  1  0  0  0  0
 24 69  1  0  0  0  0
 24 70  1  0  0  0  0
 25 26  1  0  0  0  0
 25 27  1  0  0  0  0
 25 28  1  0  0  0  0
 25 71  1  1  0  0  0
 26 72  1  1  0  0  0
 27 29  1  0  0  0  0
 27 73  1  0  0  0  0
 28 30  1  0  0  0  0
 28 74  1  0  0  0  0
 28 75  1  0  0  0  0
 29 76  1  0  0  0  0
 29 77  1  0  0  0  0
 30 78  1  0  0  0  0
 30 79  1  0  0  0  0
 33 34  1  0  0  0  0
 33 36  1  0  0  0  0
 33 81  1  0  0  0  0
 34 35  1  0  0  0  0
 34 82  1  0  0  0  0
 35 84  1  0  0  0  0
 35 85  1  0  0  0  0
 36 44  1  0  0  0  0
 36 86  1  0  0  0  0
 36 87  1  0  0  0  0
 37 38  2  0  0  0  0
 37 41  1  0  0  0  0
 38 43  1  0  0  0  0
 39 42  1  0  0  0  0
 39 88  1  0  0  0  0
 39 89  1  0  0  0  0
 40 41  2  0  0  0  0
 40 45  1  0  0  0  0
 41 91  1  0  0  0  0
 42 46  1  0  0  0  0
 42 47  1  0  0  0  0
 42 90  1  0  0  0  0
 43 45  2  0  0  0  0
 43 92  1  0  0  0  0
 44 48  2  0  0  0  0
 44 49  1  0  0  0  0
 45 93  1  0  0  0  0
 46 95  1  0  0  0  0
 46 96  1  0  0  0  0
 46 97  1  0  0  0  0
 47 98  1  0  0  0  0
 47 99  1  0  0  0  0
 47100  1  0  0  0  0
 48 50  1  0  0  0  0
 48101  1  0  0  0  0
 49 51  2  0  0  0  0
 49102  1  0  0  0  0
 50 52  2  0  0  0  0
 50103  1  0  0  0  0
 51 52  1  0  0  0  0
 51104  1  0  0  0  0
 52105  1  0  0  0  0
M  END
> <PUBCHEM_COMPOUND_CID>
53361968

> <PUBCHEM_COMPOUND_CANONICALIZED>
1

> <PUBCHEM_CACTVS_COMPLEXITY>
1250

> <PUBCHEM_CACTVS_HBOND_ACCEPTOR>
12

> <PUBCHEM_CACTVS_HBOND_DONOR>
3

> <PUBCHEM_CACTVS_ROTATABLE_BOND>
15

> <PUBCHEM_CACTVS_SUBSKEYS>
AAADcfB/uABgAAAAAAAAAAAAAAAAAeJEiAA8YIAAAAASAFgB9AAAHgQQSAAADTzx3gcz2bPIFgqsAyRifHDD8LlhCjlJmLw4ZJmbMKLg2ZGuYAhtlgLeyCfQ4KgOAAQAAEAAAQAACAAAgAACAAAAAAAAAA==

> <PUBCHEM_IUPAC_OPENEYE_NAME>
[(3aS,4R,6aR)-2,3,3a,4,5,6a-hexahydrofuro[2,3-b]furan-4-yl] N-[(1S,2R)-1-benzyl-3-[[2-[(1-cyclopentyl-4-piperidyl)amino]-1,3-benzothiazol-6-yl]sulfonyl-isobutyl-amino]-2-hydroxy-propyl]carbamate

> <PUBCHEM_IUPAC_CAS_NAME>
N-[(2S,3R)-4-[[2-[(1-cyclopentyl-4-piperidinyl)amino]-1,3-benzothiazol-6-yl]sulfonyl-(2-methylpropyl)amino]-3-hydroxy-1-phenylbutan-2-yl]carbamic acid [(3aS,4R,6aR)-2,3,3a,4,5,6a-hexahydrofuro[2,3-b]furan-4-yl] ester

> <PUBCHEM_IUPAC_NAME_MARKUP>
[(3<I>a</I><I>S</I>,4<I>R</I>,6<I>a</I><I>R</I>)-2,3,3<I>a</I>,4,5,6<I>a</I>-hexahydrofuro[2,3-b]furan-4-yl] <I>N</I>-[(2<I>S</I>,3<I>R</I>)-4-[[2-[(1-cyclopentylpiperidin-4-yl)amino]-1,3-benzothiazol-6-yl]sulfonyl-(2-methylpropyl)amino]-3-hydroxy-1-phenylbutan-2-yl]carbamate

> <PUBCHEM_IUPAC_NAME>
[(3aS,4R,6aR)-2,3,3a,4,5,6a-hexahydrofuro[2,3-b]furan-4-yl] N-[(2S,3R)-4-[[2-[(1-cyclopentylpiperidin-4-yl)amino]-1,3-benzothiazol-6-yl]sulfonyl-(2-methylpropyl)amino]-3-hydroxy-1-phenylbutan-2-yl]carbamate

> <PUBCHEM_IUPAC_SYSTEMATIC_NAME>
[(3aS,4R,6aR)-2,3,3a,4,5,6a-hexahydrofuro[2,3-b]furan-4-yl] N-[(2S,3R)-4-[[2-[(1-cyclopentylpiperidin-4-yl)amino]-1,3-benzothiazol-6-yl]sulfonyl-(2-methylpropyl)amino]-3-oxidanyl-1-phenyl-butan-2-yl]carbamate

> <PUBCHEM_IUPAC_TRADITIONAL_NAME>
N-[(1S,2R)-1-benzyl-3-[[2-[(1-cyclopentyl-4-piperidyl)amino]-1,3-benzothiazol-6-yl]sulfonyl-isobutyl-amino]-2-hydroxy-propyl]carbamic acid [(3aS,4R,6aR)-2,3,3a,4,5,6a-hexahydrofuro[2,3-b]furan-4-yl] ester

> <PUBCHEM_IUPAC_INCHI>
InChI=1S/C38H53N5O7S2/c1-25(2)22-43(23-33(44)32(20-26-8-4-3-5-9-26)41-38(45)50-34-24-49-36-30(34)16-19-48-36)52(46,47)29-12-13-31-35(21-29)51-37(40-31)39-27-14-17-42(18-15-27)28-10-6-7-11-28/h3-5,8-9,12-13,21,25,27-28,30,32-34,36,44H,6-7,10-11,14-20,22-24H2,1-2H3,(H,39,40)(H,41,45)/t30-,32-,33+,34-,36+/m0/s1

> <PUBCHEM_IUPAC_INCHIKEY>
JQUNFHFWXCXPRK-AMMMHQJVSA-N

> <PUBCHEM_XLOGP3_AA>
6.3

> <PUBCHEM_EXACT_MASS>
755.33864139

> <PUBCHEM_MOLECULAR_FORMULA>
C38H53N5O7S2

> <PUBCHEM_MOLECULAR_WEIGHT>
756.0

> <PUBCHEM_OPENEYE_CAN_SMILES>
CC(C)CN(CC(C(CC1=CC=CC=C1)NC(=O)OC2COC3C2CCO3)O)S(=O)(=O)C4=CC5=C(C=C4)N=C(S5)NC6CCN(CC6)C7CCCC7

> <PUBCHEM_OPENEYE_ISO_SMILES>
CC(C)CN(C[C@H]([C@H](CC1=CC=CC=C1)NC(=O)O[C@H]2CO[C@@H]3[C@H]2CCO3)O)S(=O)(=O)C4=CC5=C(C=C4)N=C(S5)NC6CCN(CC6)C7CCCC7

> <PUBCHEM_CACTVS_TPSA>
179

> <PUBCHEM_MONOISOTOPIC_WEIGHT>
755.33864139

> <PUBCHEM_TOTAL_CHARGE>
0

> <PUBCHEM_HEAVY_ATOM_COUNT>
52

> <PUBCHEM_ATOM_DEF_STEREO_COUNT>
5

> <PUBCHEM_ATOM_UDEF_STEREO_COUNT>
0

> <PUBCHEM_BOND_DEF_STEREO_COUNT>
0

> <PUBCHEM_BOND_UDEF_STEREO_COUNT>
0

> <PUBCHEM_ISOTOPIC_ATOM_COUNT>
0

> <PUBCHEM_COMPONENT_COUNT>
1

> <PUBCHEM_CACTVS_TAUTO_COUNT>
-1

> <PUBCHEM_COORDINATE_TYPE>
1
5
255

> <PUBCHEM_BONDANNOTATIONS>
1  31  8
1  37  8
33  12  6
13  31  8
13  38  8
25  71  5
26  72  5
37  38  8
37  41  8
38  43  8
40  41  8
40  45  8
43  45  8
44  48  8
44  49  8
48  50  8
49  51  8
27  5  6
50  52  8
51  52  8
34  6  6

$$$$
71661251
  -OEChem-03012215082D

120128  0     1  0  0  0  0  0999 V2000
    5.7463   -1.5319    0.0000 O   0  0  0  0  0  0  0  0  0  0  0  0
   19.7603   -0.8965    0.0000 O   0  0  0  0  0  0  0  0  0  0  0  0
   14.0569    1.1514    0.0000 O   0  0  0  0  0  0  0  0  0  0  0  0
    2.9116   -3.7600    0.0000 O   0  0  0  0  0  0  0  0  0  0  0  0
   23.2569   -0.0170    0.0000 O   0  0  0  0  0  0  0  0  0  0  0  0
    2.1997   -2.1811    0.0000 O   0  0  0  0  0  0  0  0  0  0  0  0
   23.2636   -1.7490    0.0000 O   0  0  0  0  0  0  0  0  0  0  0  0
    5.0344    0.0471    0.0000 N   0  0  0  0  0  0  0  0  0  0  0  0
   19.7669   -2.6286    0.0000 N   0  0  0  0  0  0  0  0  0  0  0  0
    7.6771    0.6528    0.0000 N   0  0  0  0  0  0  0  0  0  0  0  0
   17.1067   -2.1047    0.0000 N   0  0  0  0  0  0  0  0  0  0  0  0
    7.0260   -0.8284    0.0000 N   0  0  0  0  0  0  0  0  0  0  0  0
   18.3050   -1.0174    0.0000 N   0  0  0  0  0  0  0  0  0  0  0  0
   12.4096    0.6162    0.0000 N   0  0  0  0  0  0  0  0  0  0  0  0
    3.9231   -2.3540    0.0000 N   0  0  0  0  0  0  0  0  0  0  0  0
   21.7602   -0.8888    0.0000 N   0  0  0  0  0  0  0  0  0  0  0  0
    5.8980    0.5511    0.0000 C   0  0  1  0  0  0  0  0  0  0  0  0
   18.7728   -2.7369    0.0000 C   0  0  1  0  0  0  0  0  0  0  0  0
    5.6855    1.5283    0.0000 C   0  0  0  0  0  0  0  0  0  0  0  0
   18.5687   -3.7158    0.0000 C   0  0  0  0  0  0  0  0  0  0  0  0
    4.6905    1.6281    0.0000 C   0  0  0  0  0  0  0  0  0  0  0  0
    4.2880    0.7127    0.0000 C   0  0  0  0  0  0  0  0  0  0  0  0
   19.4366   -4.2125    0.0000 C   0  0  0  0  0  0  0  0  0  0  0  0
   20.1772   -3.5405    0.0000 C   0  0  0  0  0  0  0  0  0  0  0  0
    6.8135    0.1487    0.0000 C   0  0  0  0  0  0  0  0  0  0  0  0
   18.1008   -1.9964    0.0000 C   0  0  0  0  0  0  0  0  0  0  0  0
    4.9345   -0.9480    0.0000 C   0  0  0  0  0  0  0  0  0  0  0  0
   20.2636   -1.7606    0.0000 C   0  0  0  0  0  0  0  0  0  0  0  0
    4.0229   -1.3590    0.0000 C   0  0  2  0  0  0  0  0  0  0  0  0
   21.2636   -1.7568    0.0000 C   0  0  2  0  0  0  0  0  0  0  0  0
    3.2111   -0.7750    0.0000 C   0  0  0  0  0  0  0  0  0  0  0  0
   21.7669   -2.6208    0.0000 C   0  0  0  0  0  0  0  0  0  0  0  0
    8.4234   -0.0128    0.0000 C   0  0  0  0  0  0  0  0  0  0  0  0
   16.6965   -1.1927    0.0000 C   0  0  0  0  0  0  0  0  0  0  0  0
   12.7187   -0.3349    0.0000 C   0  0  0  0  0  0  0  0  0  0  0  0
   11.4156    0.6136    0.0000 C   0  0  0  0  0  0  0  0  0  0  0  0
    9.4006    0.1997    0.0000 C   0  0  0  0  0  0  0  0  0  0  0  0
   13.0788    1.3593    0.0000 C   0  0  2  0  0  0  0  0  0  0  0  0
    8.0210   -0.9283    0.0000 C   0  0  0  0  0  0  0  0  0  0  0  0
   11.1092   -0.3321    0.0000 C   0  0  0  0  0  0  0  0  0  0  0  0
   17.4370   -0.5208    0.0000 C   0  0  0  0  0  0  0  0  0  0  0  0
    2.2995   -1.1861    0.0000 C   0  0  0  0  0  0  0  0  0  0  0  0
    3.3110    0.2200    0.0000 C   0  0  0  0  0  0  0  0  0  0  0  0
   15.7175   -0.9886    0.0000 C   0  0  0  0  0  0  0  0  0  0  0  0
   22.7669   -2.6170    0.0000 C   0  0  0  0  0  0  0  0  0  0  0  0
   21.2703   -3.4888    0.0000 C   0  0  0  0  0  0  0  0  0  0  0  0
   13.6968   -0.5428    0.0000 C   0  0  0  0  0  0  0  0  0  0  0  0
   14.3659    0.2004    0.0000 C   0  0  0  0  0  0  0  0  0  0  0  0
   11.9129   -0.9171    0.0000 C   0  0  0  0  0  0  0  0  0  0  0  0
   10.1000   -0.5638    0.0000 C   0  0  0  0  0  0  0  0  0  0  0  0
   15.3880   -0.0005    0.0000 C   0  0  0  0  0  0  0  0  0  0  0  0
   10.7340    1.3931    0.0000 C   0  0  0  0  0  0  0  0  0  0  0  0
    9.7197    1.1848    0.0000 C   0  0  0  0  0  0  0  0  0  0  0  0
   15.0205   -1.7627    0.0000 C   0  0  0  0  0  0  0  0  0  0  0  0
   14.0034   -1.5383    0.0000 C   0  0  0  0  0  0  0  0  0  0  0  0
   12.7698    2.3104    0.0000 C   0  0  0  0  0  0  0  0  0  0  0  0
    3.0114   -2.7650    0.0000 C   0  0  0  0  0  0  0  0  0  0  0  0
   22.7602   -0.8849    0.0000 C   0  0  0  0  0  0  0  0  0  0  0  0
   11.7916    2.5183    0.0000 C   0  0  0  0  0  0  0  0  0  0  0  0
   13.4389    3.0535    0.0000 C   0  0  0  0  0  0  0  0  0  0  0  0
   11.4826    3.4694    0.0000 C   0  0  0  0  0  0  0  0  0  0  0  0
   13.1299    4.0046    0.0000 C   0  0  0  0  0  0  0  0  0  0  0  0
   12.1517    4.2125    0.0000 C   0  0  0  0  0  0  0  0  0  0  0  0
    2.0000   -4.1711    0.0000 C   0  0  0  0  0  0  0  0  0  0  0  0
   24.2569   -0.0131    0.0000 C   0  0  0  0  0  0  0  0  0  0  0  0
    6.5560    1.0892    0.0000 H   0  0  0  0  0  0  0  0  0  0  0  0
   17.9526   -2.9601    0.0000 H   0  0  0  0  0  0  0  0  0  0  0  0
    6.3018    1.5960    0.0000 H   0  0  0  0  0  0  0  0  0  0  0  0
    5.6826    2.1483    0.0000 H   0  0  0  0  0  0  0  0  0  0  0  0
   17.9783   -3.5265    0.0000 H   0  0  0  0  0  0  0  0  0  0  0  0
   18.3187   -4.2832    0.0000 H   0  0  0  0  0  0  0  0  0  0  0  0
    4.8165    2.2352    0.0000 H   0  0  0  0  0  0  0  0  0  0  0  0
    4.0999    1.8169    0.0000 H   0  0  0  0  0  0  0  0  0  0  0  0
    3.7497    1.0201    0.0000 H   0  0  0  0  0  0  0  0  0  0  0  0
    3.9260    0.2094    0.0000 H   0  0  0  0  0  0  0  0  0  0  0  0
   19.0741   -4.7155    0.0000 H   0  0  0  0  0  0  0  0  0  0  0  0
   19.8990   -4.6256    0.0000 H   0  0  0  0  0  0  0  0  0  0  0  0
   20.5436   -4.0407    0.0000 H   0  0  0  0  0  0  0  0  0  0  0  0
   20.7129   -3.2284    0.0000 H   0  0  0  0  0  0  0  0  0  0  0  0
    4.5262   -1.7210    0.0000 H   0  0  0  0  0  0  0  0  0  0  0  0
   21.8836   -1.7544    0.0000 H   0  0  0  0  0  0  0  0  0  0  0  0
    3.1492   -1.3919    0.0000 H   0  0  0  0  0  0  0  0  0  0  0  0
   22.0790   -3.1566    0.0000 H   0  0  0  0  0  0  0  0  0  0  0  0
    7.7390    1.2697    0.0000 H   0  0  0  0  0  0  0  0  0  0  0  0
   16.7988   -2.6428    0.0000 H   0  0  0  0  0  0  0  0  0  0  0  0
    4.4264   -2.7160    0.0000 H   0  0  0  0  0  0  0  0  0  0  0  0
   21.4482   -0.3531    0.0000 H   0  0  0  0  0  0  0  0  0  0  0  0
   13.4936    1.8201    0.0000 H   0  0  0  0  0  0  0  0  0  0  0  0
    8.3335   -1.4637    0.0000 H   0  0  0  0  0  0  0  0  0  0  0  0
   17.3698    0.0956    0.0000 H   0  0  0  0  0  0  0  0  0  0  0  0
    2.0446   -0.6209    0.0000 H   0  0  0  0  0  0  0  0  0  0  0  0
    1.7343   -1.4409    0.0000 H   0  0  0  0  0  0  0  0  0  0  0  0
    2.5544   -1.7513    0.0000 H   0  0  0  0  0  0  0  0  0  0  0  0
    3.9278    0.1581    0.0000 H   0  0  0  0  0  0  0  0  0  0  0  0
    3.3728    0.8369    0.0000 H   0  0  0  0  0  0  0  0  0  0  0  0
    2.6940    0.2819    0.0000 H   0  0  0  0  0  0  0  0  0  0  0  0
   22.7693   -3.2370    0.0000 H   0  0  0  0  0  0  0  0  0  0  0  0
   23.3869   -2.6146    0.0000 H   0  0  0  0  0  0  0  0  0  0  0  0
   22.7645   -1.9970    0.0000 H   0  0  0  0  0  0  0  0  0  0  0  0
   20.7321   -3.1809    0.0000 H   0  0  0  0  0  0  0  0  0  0  0  0
   20.9623   -4.0269    0.0000 H   0  0  0  0  0  0  0  0  0  0  0  0
   21.8084   -3.7967    0.0000 H   0  0  0  0  0  0  0  0  0  0  0  0
   11.9118   -1.5371    0.0000 H   0  0  0  0  0  0  0  0  0  0  0  0
    9.9157   -1.1558    0.0000 H   0  0  0  0  0  0  0  0  0  0  0  0
   15.7975    0.4651    0.0000 H   0  0  0  0  0  0  0  0  0  0  0  0
   10.9319    1.9807    0.0000 H   0  0  0  0  0  0  0  0  0  0  0  0
    9.3062    1.6468    0.0000 H   0  0  0  0  0  0  0  0  0  0  0  0
   15.2099   -2.3531    0.0000 H   0  0  0  0  0  0  0  0  0  0  0  0
   13.5832   -1.9942    0.0000 H   0  0  0  0  0  0  0  0  0  0  0  0
   11.3767    2.0576    0.0000 H   0  0  0  0  0  0  0  0  0  0  0  0
   14.0453    2.9246    0.0000 H   0  0  0  0  0  0  0  0  0  0  0  0
   10.8761    3.5983    0.0000 H   0  0  0  0  0  0  0  0  0  0  0  0
   13.5447    4.4654    0.0000 H   0  0  0  0  0  0  0  0  0  0  0  0
   11.9601    4.8022    0.0000 H   0  0  0  0  0  0  0  0  0  0  0  0
    1.7452   -3.6059    0.0000 H   0  0  0  0  0  0  0  0  0  0  0  0
    1.4348   -4.4259    0.0000 H   0  0  0  0  0  0  0  0  0  0  0  0
    2.2548   -4.7363    0.0000 H   0  0  0  0  0  0  0  0  0  0  0  0
   24.2593   -0.6331    0.0000 H   0  0  0  0  0  0  0  0  0  0  0  0
   24.8769   -0.0108    0.0000 H   0  0  0  0  0  0  0  0  0  0  0  0
   24.2545    0.6068    0.0000 H   0  0  0  0  0  0  0  0  0  0  0  0
  1 27  2  0  0  0  0
  2 28  2  0  0  0  0
  3 38  1  0  0  0  0
  3 48  1  0  0  0  0
  4 57  1  0  0  0  0
  4 64  1  0  0  0  0
  5 58  1  0  0  0  0
  5 65  1  0  0  0  0
  6 57  2  0  0  0  0
  7 58  2  0  0  0  0
  8 17  1  0  0  0  0
  8 22  1  0  0  0  0
  8 27  1  0  0  0  0
  9 18  1  0  0  0  0
  9 24  1  0  0  0  0
  9 28  1  0  0  0  0
 10 25  1  0  0  0  0
 10 33  1  0  0  0  0
 10 84  1  0  0  0  0
 11 26  1  0  0  0  0
 11 34  1  0  0  0  0
 11 85  1  0  0  0  0
 12 25  2  0  0  0  0
 12 39  1  0  0  0  0
 13 26  2  0  0  0  0
 13 41  1  0  0  0  0
 14 35  1  0  0  0  0
 14 36  1  0  0  0  0
 14 38  1  0  0  0  0
 29 15  1  1  0  0  0
 15 57  1  0  0  0  0
 15 86  1  0  0  0  0
 30 16  1  1  0  0  0
 16 58  1  0  0  0  0
 16 87  1  0  0  0  0
 17 19  1  0  0  0  0
 17 25  1  0  0  0  0
 17 66  1  6  0  0  0
 18 20  1  0  0  0  0
 18 26  1  0  0  0  0
 18 67  1  6  0  0  0
 19 21  1  0  0  0  0
 19 68  1  0  0  0  0
 19 69  1  0  0  0  0
 20 23  1  0  0  0  0
 20 70  1  0  0  0  0
 20 71  1  0  0  0  0
 21 22  1  0  0  0  0
 21 72  1  0  0  0  0
 21 73  1  0  0  0  0
 22 74  1  0  0  0  0
 22 75  1  0  0  0  0
 23 24  1  0  0  0  0
 23 76  1  0  0  0  0
 23 77  1  0  0  0  0
 24 78  1  0  0  0  0
 24 79  1  0  0  0  0
 27 29  1  0  0  0  0
 28 30  1  0  0  0  0
 29 31  1  0  0  0  0
 29 80  1  0  0  0  0
 30 32  1  0  0  0  0
 30 81  1  0  0  0  0
 31 42  1  0  0  0  0
 31 43  1  0  0  0  0
 31 82  1  0  0  0  0
 32 45  1  0  0  0  0
 32 46  1  0  0  0  0
 32 83  1  0  0  0  0
 33 37  1  0  0  0  0
 33 39  2  0  0  0  0
 34 41  2  0  0  0  0
 34 44  1  0  0  0  0
 35 47  1  0  0  0  0
 35 49  2  0  0  0  0
 36 40  2  0  0  0  0
 36 52  1  0  0  0  0
 37 50  2  0  0  0  0
 37 53  1  0  0  0  0
 38 56  1  6  0  0  0
 38 88  1  0  0  0  0
 39 89  1  0  0  0  0
 40 49  1  0  0  0  0
 40 50  1  0  0  0  0
 41 90  1  0  0  0  0
 42 91  1  0  0  0  0
 42 92  1  0  0  0  0
 42 93  1  0  0  0  0
 43 94  1  0  0  0  0
 43 95  1  0  0  0  0
 43 96  1  0  0  0  0
 44 51  2  0  0  0  0
 44 54  1  0  0  0  0
 45 97  1  0  0  0  0
 45 98  1  0  0  0  0
 45 99  1  0  0  0  0
 46100  1  0  0  0  0
 46101  1  0  0  0  0
 46102  1  0  0  0  0
 47 48  2  0  0  0  0
 47 55  1  0  0  0  0
 48 51  1  0  0  0  0
 49103  1  0  0  0  0
 50104  1  0  0  0  0
 51105  1  0  0  0  0
 52 53  2  0  0  0  0
 52106  1  0  0  0  0
 53107  1  0  0  0  0
 54 55  2  0  0  0  0
 54108  1  0  0  0  0
 55109  1  0  0  0  0
 56 59  2  0  0  0  0
 56 60  1  0  0  0  0
 59 61  1  0  0  0  0
 59110  1  0  0  0  0
 60 62  2  0  0  0  0
 60111  1  0  0  0  0
 61 63  2  0  0  0  0
 61112  1  0  0  0  0
 62 63  1  0  0  0  0
 62113  1  0  0  0  0
 63114  1  0  0  0  0
 64115  1  0  0  0  0
 64116  1  0  0  0  0
 64117  1  0  0  0  0
 65118  1  0  0  0  0
 65119  1  0  0  0  0
 65120  1  0  0  0  0
M  END
> <PUBCHEM_COMPOUND_CID>
71661251

> <PUBCHEM_COMPOUND_CANONICALIZED>
1

> <PUBCHEM_CACTVS_COMPLEXITY>
1680

> <PUBCHEM_CACTVS_HBOND_ACCEPTOR>
9

> <PUBCHEM_CACTVS_HBOND_DONOR>
4

> <PUBCHEM_CACTVS_ROTATABLE_BOND>
13

> <PUBCHEM_CACTVS_SUBSKEYS>
AAADcfB/+AAAAAAAAAAAAAAAAAAAAWLFixY8YMEAAAAAAFix/gAAHgAQAAAADSzhnwY/3vfNlACoAzd3fACCiC2xMqAJ2aG+fJmMbvLEubueOCju1hPI6Cew0PIOSAADAAAKAACQAAYAABQAAAAAAAAAAA==

> <PUBCHEM_IUPAC_OPENEYE_NAME>
methyl N-[(1S)-1-[(2S)-2-[5-[(6S)-3-[2-[(2S)-1-[(2S)-2-(methoxycarbonylamino)-3-methyl-butanoyl]pyrrolidin-2-yl]-1H-imidazol-5-yl]-6-phenyl-6H-indolo[1,2-c][1,3]benzoxazin-10-yl]-1H-imidazol-2-yl]pyrrolidine-1-carbonyl]-2-methyl-propyl]carbamate

> <PUBCHEM_IUPAC_CAS_NAME>
N-[(2S)-1-[(2S)-2-[5-[(6S)-3-[2-[(2S)-1-[(2S)-2-(methoxycarbonylamino)-3-methyl-1-oxobutyl]-2-pyrrolidinyl]-1H-imidazol-5-yl]-6-phenyl-6H-indolo[1,2-c][1,3]benzoxazin-10-yl]-1H-imidazol-2-yl]-1-pyrrolidinyl]-3-methyl-1-oxobutan-2-yl]carbamic acid methyl ester

> <PUBCHEM_IUPAC_NAME_MARKUP>
methyl <I>N</I>-[(2<I>S</I>)-1-[(2<I>S</I>)-2-[5-[(6<I>S</I>)-3-[2-[(2<I>S</I>)-1-[(2<I>S</I>)-2-(methoxycarbonylamino)-3-methylbutanoyl]pyrrolidin-2-yl]-1<I>H</I>-imidazol-5-yl]-6-phenyl-6<I>H</I>-indolo[1,2-c][1,3]benzoxazin-10-yl]-1<I>H</I>-imidazol-2-yl]pyrrolidin-1-yl]-3-methyl-1-oxobutan-2-yl]carbamate

> <PUBCHEM_IUPAC_NAME>
methyl N-[(2S)-1-[(2S)-2-[5-[(6S)-3-[2-[(2S)-1-[(2S)-2-(methoxycarbonylamino)-3-methylbutanoyl]pyrrolidin-2-yl]-1H-imidazol-5-yl]-6-phenyl-6H-indolo[1,2-c][1,3]benzoxazin-10-yl]-1H-imidazol-2-yl]pyrrolidin-1-yl]-3-methyl-1-oxobutan-2-yl]carbamate

> <PUBCHEM_IUPAC_SYSTEMATIC_NAME>
methyl N-[(2S)-1-[(2S)-2-[5-[(6S)-3-[2-[(2S)-1-[(2S)-2-(methoxycarbonylamino)-3-methyl-butanoyl]pyrrolidin-2-yl]-1H-imidazol-5-yl]-6-phenyl-6H-indolo[1,2-c][1,3]benzoxazin-10-yl]-1H-imidazol-2-yl]pyrrolidin-1-yl]-3-methyl-1-oxidanylidene-butan-2-yl]carbamate

> <PUBCHEM_IUPAC_TRADITIONAL_NAME>
N-[(1S)-1-[(2S)-2-[5-[(6S)-3-[2-[(2S)-1-[(2S)-2-(carbomethoxyamino)-3-methyl-butanoyl]pyrrolidin-2-yl]-1H-imidazol-5-yl]-6-phenyl-6H-indolo[1,2-c][1,3]benzoxazin-10-yl]-1H-imidazol-2-yl]pyrrolidine-1-carbonyl]-2-methyl-propyl]carbamic acid methyl ester

> <PUBCHEM_IUPAC_INCHI>
InChI=1S/C49H55N9O7/c1-27(2)41(54-48(61)63-5)45(59)56-20-10-14-37(56)43-50-25-34(52-43)30-17-19-36-32(22-30)23-39-33-18-16-31(24-40(33)65-47(58(36)39)29-12-8-7-9-13-29)35-26-51-44(53-35)38-15-11-21-57(38)46(60)42(28(3)4)55-49(62)64-6/h7-9,12-13,16-19,22-28,37-38,41-42,47H,10-11,14-15,20-21H2,1-6H3,(H,50,52)(H,51,53)(H,54,61)(H,55,62)/t37-,38-,41-,42-,47-/m0/s1

> <PUBCHEM_IUPAC_INCHIKEY>
BVAZQCUMNICBAQ-PZHYSIFUSA-N

> <PUBCHEM_XLOGP3_AA>
6.7

> <PUBCHEM_EXACT_MASS>
881.42244513

> <PUBCHEM_MOLECULAR_FORMULA>
C49H55N9O7

> <PUBCHEM_MOLECULAR_WEIGHT>
882.0

> <PUBCHEM_OPENEYE_CAN_SMILES>
CC(C)C(C(=O)N1CCCC1C2=NC=C(N2)C3=CC4=C(C=C3)N5C(OC6=C(C5=C4)C=CC(=C6)C7=CN=C(N7)C8CCCN8C(=O)C(C(C)C)NC(=O)OC)C9=CC=CC=C9)NC(=O)OC

> <PUBCHEM_OPENEYE_ISO_SMILES>
CC(C)[C@@H](C(=O)N1CCC[C@H]1C2=NC=C(N2)C3=CC4=C(C=C3)N5[C@@H](OC6=C(C5=C4)C=CC(=C6)C7=CN=C(N7)[C@@H]8CCCN8C(=O)[C@H](C(C)C)NC(=O)OC)C9=CC=CC=C9)NC(=O)OC

> <PUBCHEM_CACTVS_TPSA>
189

> <PUBCHEM_MONOISOTOPIC_WEIGHT>
881.42244513

> <PUBCHEM_TOTAL_CHARGE>
0

> <PUBCHEM_HEAVY_ATOM_COUNT>
65

> <PUBCHEM_ATOM_DEF_STEREO_COUNT>
5

> <PUBCHEM_ATOM_UDEF_STEREO_COUNT>
0

> <PUBCHEM_BOND_DEF_STEREO_COUNT>
0

> <PUBCHEM_BOND_UDEF_STEREO_COUNT>
0

> <PUBCHEM_ISOTOPIC_ATOM_COUNT>
0

> <PUBCHEM_COMPONENT_COUNT>
1

> <PUBCHEM_CACTVS_TAUTO_COUNT>
16

> <PUBCHEM_COORDINATE_TYPE>
1
5
255

> <PUBCHEM_BONDANNOTATIONS>
10  25  8
10  33  8
11  26  8
11  34  8
12  25  8
12  39  8
13  26  8
13  41  8
14  35  8
14  36  8
29  15  5
30  16  5
17  66  6
18  67  6
33  39  8
34  41  8
35  49  8
36  40  8
36  52  8
37  50  8
37  53  8
38  56  6
40  49  8
40  50  8
44  51  8
44  54  8
47  48  8
47  55  8
48  51  8
52  53  8
54  55  8
56  59  8
56  60  8
59  61  8
60  62  8
61  63  8
62  63  8

$$$$
3652
  -OEChem-03012215082D

 49 50  0     1  0  0  0  0  0999 V2000
    2.0000   -4.6618    0.0000 Cl   0  0  0  0  0  0  0  0  0  0  0  0
    8.9942    4.3623    0.0000 O    0  0  0  0  0  0  0  0  0  0  0  0
    8.1282    1.8623    0.0000 N    0  0  3  0  0  0  0  0  0  0  0  0
    5.5301   -1.6377    0.0000 N    0  0  0  0  0  0  0  0  0  0  0  0
    5.5301   -4.6377    0.0000 N    0  0  0  0  0  0  0  0  0  0  0  0
    6.3961   -0.1377    0.0000 C    0  0  0  0  0  0  0  0  0  0  0  0
    7.2622    0.3623    0.0000 C    0  0  0  0  0  0  0  0  0  0  0  0
    6.3961   -1.1377    0.0000 C    0  0  3  0  0  0  0  0  0  0  0  0
    7.2622    1.3623    0.0000 C    0  0  0  0  0  0  0  0  0  0  0  0
    8.1282    2.8623    0.0000 C    0  0  0  0  0  0  0  0  0  0  0  0
    7.2622   -1.6377    0.0000 C    0  0  0  0  0  0  0  0  0  0  0  0
    8.9942    1.3623    0.0000 C    0  0  0  0  0  0  0  0  0  0  0  0
    5.5301   -2.6377    0.0000 C    0  0  0  0  0  0  0  0  0  0  0  0
    8.9942    3.3623    0.0000 C    0  0  0  0  0  0  0  0  0  0  0  0
    9.8602    1.8623    0.0000 C    0  0  0  0  0  0  0  0  0  0  0  0
    4.6641   -3.1377    0.0000 C    0  0  0  0  0  0  0  0  0  0  0  0
    6.3961   -3.1377    0.0000 C    0  0  0  0  0  0  0  0  0  0  0  0
    4.6641   -4.1377    0.0000 C    0  0  0  0  0  0  0  0  0  0  0  0
    3.7702   -2.6030    0.0000 C    0  0  0  0  0  0  0  0  0  0  0  0
    6.3961   -4.1377    0.0000 C    0  0  0  0  0  0  0  0  0  0  0  0
    3.7702   -4.6723    0.0000 C    0  0  0  0  0  0  0  0  0  0  0  0
    2.8641   -3.1168    0.0000 C    0  0  0  0  0  0  0  0  0  0  0  0
    2.8641   -4.1585    0.0000 C    0  0  0  0  0  0  0  0  0  0  0  0
    6.1841    0.4449    0.0000 H    0  0  0  0  0  0  0  0  0  0  0  0
    5.7856   -0.2453    0.0000 H    0  0  0  0  0  0  0  0  0  0  0  0
    7.4742   -0.2203    0.0000 H    0  0  0  0  0  0  0  0  0  0  0  0
    7.8728    0.4700    0.0000 H    0  0  0  0  0  0  0  0  0  0  0  0
    5.8592   -0.8277    0.0000 H    0  0  0  0  0  0  0  0  0  0  0  0
    7.0501    1.9449    0.0000 H    0  0  0  0  0  0  0  0  0  0  0  0
    6.6516    1.2547    0.0000 H    0  0  0  0  0  0  0  0  0  0  0  0
    4.9932   -1.3277    0.0000 H    0  0  0  0  0  0  0  0  0  0  0  0
    7.9162    3.4449    0.0000 H    0  0  0  0  0  0  0  0  0  0  0  0
    7.5176    2.7547    0.0000 H    0  0  0  0  0  0  0  0  0  0  0  0
    6.9522   -2.1746    0.0000 H    0  0  0  0  0  0  0  0  0  0  0  0
    7.7991   -1.9477    0.0000 H    0  0  0  0  0  0  0  0  0  0  0  0
    7.5722   -1.1007    0.0000 H    0  0  0  0  0  0  0  0  0  0  0  0
    8.5957    0.8874    0.0000 H    0  0  0  0  0  0  0  0  0  0  0  0
    9.3928    0.8874    0.0000 H    0  0  0  0  0  0  0  0  0  0  0  0
    9.2063    2.7797    0.0000 H    0  0  0  0  0  0  0  0  0  0  0  0
    9.6048    3.4700    0.0000 H    0  0  0  0  0  0  0  0  0  0  0  0
   10.1703    1.3254    0.0000 H    0  0  0  0  0  0  0  0  0  0  0  0
   10.3972    2.1723    0.0000 H    0  0  0  0  0  0  0  0  0  0  0  0
    9.5502    2.3993    0.0000 H    0  0  0  0  0  0  0  0  0  0  0  0
    6.9331   -2.8277    0.0000 H    0  0  0  0  0  0  0  0  0  0  0  0
    3.7773   -1.9830    0.0000 H    0  0  0  0  0  0  0  0  0  0  0  0
    6.9331   -4.4477    0.0000 H    0  0  0  0  0  0  0  0  0  0  0  0
    3.7773   -5.2923    0.0000 H    0  0  0  0  0  0  0  0  0  0  0  0
    2.3284   -2.8048    0.0000 H    0  0  0  0  0  0  0  0  0  0  0  0
    9.5312    4.6723    0.0000 H    0  0  0  0  0  0  0  0  0  0  0  0
  1 23  1  0  0  0  0
  2 14  1  0  0  0  0
  2 49  1  0  0  0  0
  3  9  1  0  0  0  0
  3 10  1  0  0  0  0
  3 12  1  0  0  0  0
  4  8  1  0  0  0  0
  4 13  1  0  0  0  0
  4 31  1  0  0  0  0
  5 18  2  0  0  0  0
  5 20  1  0  0  0  0
  6  7  1  0  0  0  0
  6  8  1  0  0  0  0
  6 24  1  0  0  0  0
  6 25  1  0  0  0  0
  7  9  1  0  0  0  0
  7 26  1  0  0  0  0
  7 27  1  0  0  0  0
  8 11  1  0  0  0  0
  8 28  1  0  0  0  0
  9 29  1  0  0  0  0
  9 30  1  0  0  0  0
 10 14  1  0  0  0  0
 10 32  1  0  0  0  0
 10 33  1  0  0  0  0
 11 34  1  0  0  0  0
 11 35  1  0  0  0  0
 11 36  1  0  0  0  0
 12 15  1  0  0  0  0
 12 37  1  0  0  0  0
 12 38  1  0  0  0  0
 13 16  2  0  0  0  0
 13 17  1  0  0  0  0
 14 39  1  0  0  0  0
 14 40  1  0  0  0  0
 15 41  1  0  0  0  0
 15 42  1  0  0  0  0
 15 43  1  0  0  0  0
 16 18  1  0  0  0  0
 16 19  1  0  0  0  0
 17 20  2  0  0  0  0
 17 44  1  0  0  0  0
 18 21  1  0  0  0  0
 19 22  2  0  0  0  0
 19 45  1  0  0  0  0
 20 46  1  0  0  0  0
 21 23  2  0  0  0  0
 21 47  1  0  0  0  0
 22 23  1  0  0  0  0
 22 48  1  0  0  0  0
M  END
> <PUBCHEM_COMPOUND_CID>
3652

> <PUBCHEM_COMPOUND_CANONICALIZED>
1

> <PUBCHEM_CACTVS_COMPLEXITY>
331

> <PUBCHEM_CACTVS_HBOND_ACCEPTOR>
4

> <PUBCHEM_CACTVS_HBOND_DONOR>
2

> <PUBCHEM_CACTVS_ROTATABLE_BOND>
9

> <PUBCHEM_CACTVS_SUBSKEYS>
AAADceB7IAAEAAAAAAAAAAAAAAAAAAAAAAA8QAAAAAAAAACx8AAAHgIQCAAADCrhniY+wPPIEgCgAzRnRACCgCAxByAI2KA4ZpgKMOLB09GEJAhgkADYyAcQgIAOBAAAAAICAAAIAAAABAQAAAAAAAAAAA==

> <PUBCHEM_IUPAC_OPENEYE_NAME>
2-[4-[(7-chloro-4-quinolyl)amino]pentyl-ethyl-amino]ethanol

> <PUBCHEM_IUPAC_CAS_NAME>
2-[4-[(7-chloro-4-quinolinyl)amino]pentyl-ethylamino]ethanol

> <PUBCHEM_IUPAC_NAME_MARKUP>
2-[4-[(7-chloroquinolin-4-yl)amino]pentyl-ethylamino]ethanol

> <PUBCHEM_IUPAC_NAME>
2-[4-[(7-chloroquinolin-4-yl)amino]pentyl-ethylamino]ethanol

> <PUBCHEM_IUPAC_SYSTEMATIC_NAME>
2-[4-[(7-chloranylquinolin-4-yl)amino]pentyl-ethyl-amino]ethanol

> <PUBCHEM_IUPAC_TRADITIONAL_NAME>
2-[4-[(7-chloro-4-quinolyl)amino]pentyl-ethyl-amino]ethanol

> <PUBCHEM_IUPAC_INCHI>
InChI=1S/C18H26ClN3O/c1-3-22(11-12-23)10-4-5-14(2)21-17-8-9-20-18-13-15(19)6-7-16(17)18/h6-9,13-14,23H,3-5,10-12H2,1-2H3,(H,20,21)

> <PUBCHEM_IUPAC_INCHIKEY>
XXSMGPRMXLTPCZ-UHFFFAOYSA-N

> <PUBCHEM_XLOGP3>
3.6

> <PUBCHEM_EXACT_MASS>
335.1764402

> <PUBCHEM_MOLECULAR_FORMULA>
C18H26ClN3O

> <PUBCHEM_MOLECULAR_WEIGHT>
335.9

> <PUBCHEM_OPENEYE_CAN_SMILES>
CCN(CCCC(C)NC1=C2C=CC(=CC2=NC=C1)Cl)CCO

> <PUBCHEM_OPENEYE_ISO_SMILES>
CCN(CCCC(C)NC1=C2C=CC(=CC2=NC=C1)Cl)CCO

> <PUBCHEM_CACTVS_TPSA>
48.4

> <PUBCHEM_MONOISOTOPIC_WEIGHT>
335.1764402

> <PUBCHEM_TOTAL_CHARGE>
0

> <PUBCHEM_HEAVY_ATOM_COUNT>
23

> <PUBCHEM_ATOM_DEF_STEREO_COUNT>
0

> <PUBCHEM_ATOM_UDEF_STEREO_COUNT>
1

> <PUBCHEM_BOND_DEF_STEREO_COUNT>
0

> <PUBCHEM_BOND_UDEF_STEREO_COUNT>
0

> <PUBCHEM_ISOTOPIC_ATOM_COUNT>
0

> <PUBCHEM_COMPONENT_COUNT>
1

> <PUBCHEM_CACTVS_TAUTO_COUNT>
-1

> <PUBCHEM_COORDINATE_TYPE>
1
5
255

> <PUBCHEM_BONDANNOTATIONS>
13  16  8
13  17  8
16  18  8
16  19  8
17  20  8
18  21  8
19  22  8
21  23  8
22  23  8
5  18  8
5  20  8
8  11  3

$$$$
25126798
  -OEChem-03012215082D

 41 44  0     1  0  0  0  0  0999 V2000
    3.3660    0.8006    0.0000 N   0  0  0  0  0  0  0  0  0  0  0  0
    2.3660    0.8006    0.0000 N   0  0  0  0  0  0  0  0  0  0  0  0
    2.0000   -2.2383    0.0000 N   0  0  0  0  0  0  0  0  0  0  0  0
    6.1239    3.1231    0.0000 N   0  0  0  0  0  0  0  0  0  0  0  0
    4.6783   -3.5430    0.0000 N   0  0  0  0  0  0  0  0  0  0  0  0
    2.8660   -3.7383    0.0000 N   0  0  0  0  0  0  0  0  0  0  0  0
    3.5471    2.5231    0.0000 C   0  0  0  0  0  0  0  0  0  0  0  0
    4.0471    3.3892    0.0000 C   0  0  0  0  0  0  0  0  0  0  0  0
    2.5689    2.7311    0.0000 C   0  0  0  0  0  0  0  0  0  0  0  0
    3.9538    1.6096    0.0000 C   0  0  1  0  0  0  0  0  0  0  0  0
    3.3779    4.1323    0.0000 C   0  0  0  0  0  0  0  0  0  0  0  0
    2.4644    3.7256    0.0000 C   0  0  0  0  0  0  0  0  0  0  0  0
    4.9483    1.5051    0.0000 C   0  0  0  0  0  0  0  0  0  0  0  0
    3.6750   -0.1505    0.0000 C   0  0  0  0  0  0  0  0  0  0  0  0
    2.8660   -0.7383    0.0000 C   0  0  0  0  0  0  0  0  0  0  0  0
    5.5361    2.3141    0.0000 C   0  0  0  0  0  0  0  0  0  0  0  0
    2.0570   -0.1505    0.0000 C   0  0  0  0  0  0  0  0  0  0  0  0
    2.8660   -1.7383    0.0000 C   0  0  0  0  0  0  0  0  0  0  0  0
    3.7320   -2.2383    0.0000 C   0  0  0  0  0  0  0  0  0  0  0  0
    3.7320   -3.2383    0.0000 C   0  0  0  0  0  0  0  0  0  0  0  0
    4.6783   -1.9335    0.0000 C   0  0  0  0  0  0  0  0  0  0  0  0
    5.2619   -2.7383    0.0000 C   0  0  0  0  0  0  0  0  0  0  0  0
    2.0000   -3.2383    0.0000 C   0  0  0  0  0  0  0  0  0  0  0  0
    4.1662    2.4907    0.0000 H   0  0  0  0  0  0  0  0  0  0  0  0
    4.5487    3.0247    0.0000 H   0  0  0  0  0  0  0  0  0  0  0  0
    4.4619    3.8499    0.0000 H   0  0  0  0  0  0  0  0  0  0  0  0
    1.9489    2.7311    0.0000 H   0  0  0  0  0  0  0  0  0  0  0  0
    2.5041    2.1144    0.0000 H   0  0  0  0  0  0  0  0  0  0  0  0
    4.2060    1.0432    0.0000 H   0  0  0  0  0  0  0  0  0  0  0  0
    3.8795    4.4967    0.0000 H   0  0  0  0  0  0  0  0  0  0  0  0
    3.0679    4.6692    0.0000 H   0  0  0  0  0  0  0  0  0  0  0  0
    2.2728    4.3152    0.0000 H   0  0  0  0  0  0  0  0  0  0  0  0
    1.8580    3.5967    0.0000 H   0  0  0  0  0  0  0  0  0  0  0  0
    4.7774    0.9091    0.0000 H   0  0  0  0  0  0  0  0  0  0  0  0
    5.5056    1.2333    0.0000 H   0  0  0  0  0  0  0  0  0  0  0  0
    4.2647   -0.3421    0.0000 H   0  0  0  0  0  0  0  0  0  0  0  0
    1.4674   -0.3421    0.0000 H   0  0  0  0  0  0  0  0  0  0  0  0
    4.8709   -1.3442    0.0000 H   0  0  0  0  0  0  0  0  0  0  0  0
    4.8709   -4.1323    0.0000 H   0  0  0  0  0  0  0  0  0  0  0  0
    5.8819   -2.7383    0.0000 H   0  0  0  0  0  0  0  0  0  0  0  0
    1.4631   -3.5483    0.0000 H   0  0  0  0  0  0  0  0  0  0  0  0
  1  2  1  0  0  0  0
  1 10  1  0  0  0  0
  1 14  1  0  0  0  0
  2 17  2  0  0  0  0
  3 18  1  0  0  0  0
  3 23  2  0  0  0  0
  4 16  3  0  0  0  0
  5 20  1  0  0  0  0
  5 22  1  0  0  0  0
  5 39  1  0  0  0  0
  6 20  2  0  0  0  0
  6 23  1  0  0  0  0
  7  8  1  0  0  0  0
  7  9  1  0  0  0  0
  7 10  1  0  0  0  0
  7 24  1  0  0  0  0
  8 11  1  0  0  0  0
  8 25  1  0  0  0  0
  8 26  1  0  0  0  0
  9 12  1  0  0  0  0
  9 27  1  0  0  0  0
  9 28  1  0  0  0  0
 10 13  1  1  0  0  0
 10 29  1  0  0  0  0
 11 12  1  0  0  0  0
 11 30  1  0  0  0  0
 11 31  1  0  0  0  0
 12 32  1  0  0  0  0
 12 33  1  0  0  0  0
 13 16  1  0  0  0  0
 13 34  1  0  0  0  0
 13 35  1  0  0  0  0
 14 15  2  0  0  0  0
 14 36  1  0  0  0  0
 15 17  1  0  0  0  0
 15 18  1  0  0  0  0
 17 37  1  0  0  0  0
 18 19  2  0  0  0  0
 19 20  1  0  0  0  0
 19 21  1  0  0  0  0
 21 22  2  0  0  0  0
 21 38  1  0  0  0  0
 22 40  1  0  0  0  0
 23 41  1  0  0  0  0
M  END
> <PUBCHEM_COMPOUND_CID>
25126798

> <PUBCHEM_COMPOUND_CANONICALIZED>
1

> <PUBCHEM_CACTVS_COMPLEXITY>
453

> <PUBCHEM_CACTVS_HBOND_ACCEPTOR>
4

> <PUBCHEM_CACTVS_HBOND_DONOR>
1

> <PUBCHEM_CACTVS_ROTATABLE_BOND>
4

> <PUBCHEM_CACTVS_SUBSKEYS>
AAADceB7gAAAAAAAAAAAAAAAAAAAAeLEAAAsAAAAAAAAAFgB/gAAHAAYAAAADSjBHwQ9sN7JkACyBzZnZACShCmxgqAZ2aA4ZJiIqOLA2dGEpAhomALIyC8QgIAOAAAAAAAAAAAAAAAAAAAAAAAAAAAAAA==

> <PUBCHEM_IUPAC_OPENEYE_NAME>
(3R)-3-cyclopentyl-3-[4-(7H-pyrrolo[2,3-d]pyrimidin-4-yl)pyrazol-1-yl]propanenitrile

> <PUBCHEM_IUPAC_CAS_NAME>
(3R)-3-cyclopentyl-3-[4-(7H-pyrrolo[2,3-d]pyrimidin-4-yl)-1-pyrazolyl]propanenitrile

> <PUBCHEM_IUPAC_NAME_MARKUP>
(3<I>R</I>)-3-cyclopentyl-3-[4-(7<I>H</I>-pyrrolo[2,3-d]pyrimidin-4-yl)pyrazol-1-yl]propanenitrile

> <PUBCHEM_IUPAC_NAME>
(3R)-3-cyclopentyl-3-[4-(7H-pyrrolo[2,3-d]pyrimidin-4-yl)pyrazol-1-yl]propanenitrile

> <PUBCHEM_IUPAC_SYSTEMATIC_NAME>
(3R)-3-cyclopentyl-3-[4-(7H-pyrrolo[2,3-d]pyrimidin-4-yl)pyrazol-1-yl]propanenitrile

> <PUBCHEM_IUPAC_TRADITIONAL_NAME>
(3R)-3-cyclopentyl-3-[4-(7H-pyrrolo[2,3-d]pyrimidin-4-yl)pyrazol-1-yl]propionitrile

> <PUBCHEM_IUPAC_INCHI>
InChI=1S/C17H18N6/c18-7-5-15(12-3-1-2-4-12)23-10-13(9-22-23)16-14-6-8-19-17(14)21-11-20-16/h6,8-12,15H,1-5H2,(H,19,20,21)/t15-/m1/s1

> <PUBCHEM_IUPAC_INCHIKEY>
HFNKQEVNSGCOJV-OAHLLOKOSA-N

> <PUBCHEM_XLOGP3_AA>
2.1

> <PUBCHEM_EXACT_MASS>
306.15929460

> <PUBCHEM_MOLECULAR_FORMULA>
C17H18N6

> <PUBCHEM_MOLECULAR_WEIGHT>
306.4

> <PUBCHEM_OPENEYE_CAN_SMILES>
C1CCC(C1)C(CC#N)N2C=C(C=N2)C3=C4C=CNC4=NC=N3

> <PUBCHEM_OPENEYE_ISO_SMILES>
C1CCC(C1)[C@@H](CC#N)N2C=C(C=N2)C3=C4C=CNC4=NC=N3

> <PUBCHEM_CACTVS_TPSA>
83.2

> <PUBCHEM_MONOISOTOPIC_WEIGHT>
306.15929460

> <PUBCHEM_TOTAL_CHARGE>
0

> <PUBCHEM_HEAVY_ATOM_COUNT>
23

> <PUBCHEM_ATOM_DEF_STEREO_COUNT>
1

> <PUBCHEM_ATOM_UDEF_STEREO_COUNT>
0

> <PUBCHEM_BOND_DEF_STEREO_COUNT>
0

> <PUBCHEM_BOND_UDEF_STEREO_COUNT>
0

> <PUBCHEM_ISOTOPIC_ATOM_COUNT>
0

> <PUBCHEM_COMPONENT_COUNT>
1

> <PUBCHEM_CACTVS_TAUTO_COUNT>
3

> <PUBCHEM_COORDINATE_TYPE>
1
5
255

> <PUBCHEM_BONDANNOTATIONS>
1  14  8
1  2  8
10  13  5
14  15  8
15  17  8
18  19  8
19  20  8
19  21  8
2  17  8
21  22  8
3  18  8
3  23  8
5  20  8
5  22  8
6  20  8
6  23  8

$$$$
44468216
  -OEChem-03012215082D

 34 36  0     1  0  0  0  0  0999 V2000
    5.5781   -1.1586    0.0000 O   0  0  0  0  0  0  0  0  0  0  0  0
    3.2284   -0.0749    0.0000 O   0  0  0  0  0  0  0  0  0  0  0  0
    3.2321   -2.2504    0.0000 O   0  0  0  0  0  0  0  0  0  0  0  0
    6.2809   -3.1254    0.0000 O   0  0  0  0  0  0  0  0  0  0  0  0
    3.7320    0.9047    0.0000 N   0  0  0  0  0  0  0  0  0  0  0  0
    2.8660    0.4047    0.0000 N   0  0  0  0  0  0  0  0  0  0  0  0
    6.6049    0.8278    0.0000 N   0  0  0  0  0  0  0  0  0  0  0  0
    2.0000    1.9047    0.0000 N   0  0  0  0  0  0  0  0  0  0  0  0
    2.8660    3.4047    0.0000 N   0  0  0  0  0  0  0  0  0  0  0  0
    4.9889   -0.3506    0.0000 C   0  0  2  0  0  0  0  0  0  0  0  0
    4.0384   -0.6612    0.0000 C   0  0  1  0  0  0  0  0  0  0  0  0
    4.0401   -1.6612    0.0000 C   0  0  1  0  0  0  0  0  0  0  0  0
    4.9917   -1.9686    0.0000 C   0  0  1  0  0  0  0  0  0  0  0  0
    4.6783    0.5999    0.0000 C   0  0  0  0  0  0  0  0  0  0  0  0
    5.3024   -2.9191    0.0000 C   0  0  0  0  0  0  0  0  0  0  0  0
    5.2619    1.4047    0.0000 C   0  0  0  0  0  0  0  0  0  0  0  0
    5.7969    0.2386    0.0000 C   0  0  0  0  0  0  0  0  0  0  0  0
    3.7320    1.9047    0.0000 C   0  0  0  0  0  0  0  0  0  0  0  0
    4.6783    2.2094    0.0000 C   0  0  0  0  0  0  0  0  0  0  0  0
    2.8660    2.4047    0.0000 C   0  0  0  0  0  0  0  0  0  0  0  0
    2.0000    0.9047    0.0000 C   0  0  0  0  0  0  0  0  0  0  0  0
    4.1343   -0.0487    0.0000 H   0  0  0  0  0  0  0  0  0  0  0  0
    4.1382   -2.2734    0.0000 H   0  0  0  0  0  0  0  0  0  0  0  0
    5.6043   -2.0645    0.0000 H   0  0  0  0  0  0  0  0  0  0  0  0
    4.6886   -3.0065    0.0000 H   0  0  0  0  0  0  0  0  0  0  0  0
    5.2818   -3.5388    0.0000 H   0  0  0  0  0  0  0  0  0  0  0  0
    5.8819    1.4047    0.0000 H   0  0  0  0  0  0  0  0  0  0  0  0
    2.6624   -0.3280    0.0000 H   0  0  0  0  0  0  0  0  0  0  0  0
    3.2980   -2.8669    0.0000 H   0  0  0  0  0  0  0  0  0  0  0  0
    4.8709    2.7987    0.0000 H   0  0  0  0  0  0  0  0  0  0  0  0
    6.4735   -3.7147    0.0000 H   0  0  0  0  0  0  0  0  0  0  0  0
    1.4631    0.5947    0.0000 H   0  0  0  0  0  0  0  0  0  0  0  0
    2.3291    3.7147    0.0000 H   0  0  0  0  0  0  0  0  0  0  0  0
    3.4030    3.7147    0.0000 H   0  0  0  0  0  0  0  0  0  0  0  0
  1 10  1  0  0  0  0
  1 13  1  0  0  0  0
 11  2  1  1  0  0  0
  2 28  1  0  0  0  0
 12  3  1  1  0  0  0
  3 29  1  0  0  0  0
  4 15  1  0  0  0  0
  4 31  1  0  0  0  0
  5  6  1  0  0  0  0
  5 14  1  0  0  0  0
  5 18  1  0  0  0  0
  6 21  2  0  0  0  0
  7 17  3  0  0  0  0
  8 20  2  0  0  0  0
  8 21  1  0  0  0  0
  9 20  1  0  0  0  0
  9 33  1  0  0  0  0
  9 34  1  0  0  0  0
 10 11  1  0  0  0  0
 10 14  1  0  0  0  0
 10 17  1  1  0  0  0
 11 12  1  0  0  0  0
 11 22  1  0  0  0  0
 12 13  1  0  0  0  0
 12 23  1  0  0  0  0
 13 15  1  6  0  0  0
 13 24  1  0  0  0  0
 14 16  2  0  0  0  0
 15 25  1  0  0  0  0
 15 26  1  0  0  0  0
 16 19  1  0  0  0  0
 16 27  1  0  0  0  0
 18 19  2  0  0  0  0
 18 20  1  0  0  0  0
 19 30  1  0  0  0  0
 21 32  1  0  0  0  0
M  END
> <PUBCHEM_COMPOUND_CID>
44468216

> <PUBCHEM_COMPOUND_CANONICALIZED>
1

> <PUBCHEM_CACTVS_COMPLEXITY>
456

> <PUBCHEM_CACTVS_HBOND_ACCEPTOR>
8

> <PUBCHEM_CACTVS_HBOND_DONOR>
4

> <PUBCHEM_CACTVS_ROTATABLE_BOND>
2

> <PUBCHEM_CACTVS_SUBSKEYS>
AAADccBzuAAAAAAAAAAAAAAAAAAAAWJAAAAsAAAAAAAAAFgB4AAAHgAYCAAADFyhlgY18LZIFgCyBSZjZASShC8xkqAd2CA4fJiL/uLAuJmX8AhnyAPb6C/w8PcOAAAAAAAAAAAAAAAAAAAAAAAAAAAAAA==

> <PUBCHEM_IUPAC_OPENEYE_NAME>
(2R,3R,4S,5R)-2-(4-aminopyrrolo[2,1-f][1,2,4]triazin-7-yl)-3,4-dihydroxy-5-(hydroxymethyl)tetrahydrofuran-2-carbonitrile

> <PUBCHEM_IUPAC_CAS_NAME>
(2R,3R,4S,5R)-2-(4-amino-7-pyrrolo[2,1-f][1,2,4]triazinyl)-3,4-dihydroxy-5-(hydroxymethyl)-2-oxolanecarbonitrile

> <PUBCHEM_IUPAC_NAME_MARKUP>
(2<I>R</I>,3<I>R</I>,4<I>S</I>,5<I>R</I>)-2-(4-aminopyrrolo[2,1-f][1,2,4]triazin-7-yl)-3,4-dihydroxy-5-(hydroxymethyl)oxolane-2-carbonitrile

> <PUBCHEM_IUPAC_NAME>
(2R,3R,4S,5R)-2-(4-aminopyrrolo[2,1-f][1,2,4]triazin-7-yl)-3,4-dihydroxy-5-(hydroxymethyl)oxolane-2-carbonitrile

> <PUBCHEM_IUPAC_SYSTEMATIC_NAME>
(2R,3R,4S,5R)-2-(4-azanylpyrrolo[2,1-f][1,2,4]triazin-7-yl)-5-(hydroxymethyl)-3,4-bis(oxidanyl)oxolane-2-carbonitrile

> <PUBCHEM_IUPAC_TRADITIONAL_NAME>
(2R,3R,4S,5R)-2-(4-aminopyrrolo[2,1-f][1,2,4]triazin-7-yl)-3,4-dihydroxy-5-methylol-tetrahydrofuran-2-carbonitrile

> <PUBCHEM_IUPAC_INCHI>
InChI=1S/C12H13N5O4/c13-4-12(10(20)9(19)7(3-18)21-12)8-2-1-6-11(14)15-5-16-17(6)8/h1-2,5,7,9-10,18-20H,3H2,(H2,14,15,16)/t7-,9-,10-,12+/m1/s1

> <PUBCHEM_IUPAC_INCHIKEY>
BRDWIEOJOWJCLU-LTGWCKQJSA-N

> <PUBCHEM_XLOGP3_AA>
-1.4

> <PUBCHEM_EXACT_MASS>
291.09675391

> <PUBCHEM_MOLECULAR_FORMULA>
C12H13N5O4

> <PUBCHEM_MOLECULAR_WEIGHT>
291.26

> <PUBCHEM_OPENEYE_CAN_SMILES>
C1=C2C(=NC=NN2C(=C1)C3(C(C(C(O3)CO)O)O)C#N)N

> <PUBCHEM_OPENEYE_ISO_SMILES>
C1=C2C(=NC=NN2C(=C1)[C@]3([C@@H]([C@@H]([C@H](O3)CO)O)O)C#N)N

> <PUBCHEM_CACTVS_TPSA>
150

> <PUBCHEM_MONOISOTOPIC_WEIGHT>
291.09675391

> <PUBCHEM_TOTAL_CHARGE>
0

> <PUBCHEM_HEAVY_ATOM_COUNT>
21

> <PUBCHEM_ATOM_DEF_STEREO_COUNT>
4

> <PUBCHEM_ATOM_UDEF_STEREO_COUNT>
0

> <PUBCHEM_BOND_DEF_STEREO_COUNT>
0

> <PUBCHEM_BOND_UDEF_STEREO_COUNT>
0

> <PUBCHEM_ISOTOPIC_ATOM_COUNT>
0

> <PUBCHEM_COMPONENT_COUNT>
1

> <PUBCHEM_CACTVS_TAUTO_COUNT>
3

> <PUBCHEM_COORDINATE_TYPE>
1
5
255

> <PUBCHEM_BONDANNOTATIONS>
10  17  5
13  15  6
14  16  8
16  19  8
18  19  8
18  20  8
11  2  5
12  3  5
5  14  8
5  18  8
5  6  8
6  21  8
8  20  8
8  21  8

$$$$
145996610
  -OEChem-03012215082D

 42 43  0     1  0  0  0  0  0999 V2000
    5.0298   -1.1648    0.0000 O   0  0  0  0  0  0  0  0  0  0  0  0
    3.1330   -2.9249    0.0000 O   0  0  0  0  0  0  0  0  0  0  0  0
    2.4608   -0.8558    0.0000 O   0  0  0  0  0  0  0  0  0  0  0  0
    6.3031   -2.8204    0.0000 O   0  0  0  0  0  0  0  0  0  0  0  0
    5.9529    0.4229    0.0000 O   0  0  0  0  0  0  0  0  0  0  0  0
    6.4842   -4.5430    0.0000 O   0  0  0  0  0  0  0  0  0  0  0  0
    3.3548    3.9230    0.0000 O   0  0  0  0  0  0  0  0  0  0  0  0
    4.2208    0.4229    0.0000 N   0  0  0  0  0  0  0  0  0  0  0  0
    5.0868    1.9230    0.0000 N   0  0  0  0  0  0  0  0  0  0  0  0
    4.2208    3.4230    0.0000 N   0  0  0  0  0  0  0  0  0  0  0  0
    3.7208   -2.1159    0.0000 C   0  0  1  0  0  0  0  0  0  0  0  0
    3.4118   -1.1648    0.0000 C   0  0  2  0  0  0  0  0  0  0  0  0
    4.7208   -2.1159    0.0000 C   0  0  1  0  0  0  0  0  0  0  0  0
    4.2208   -0.5771    0.0000 C   0  0  1  0  0  0  0  0  0  0  0  0
    5.3086   -2.9249    0.0000 C   0  0  0  0  0  0  0  0  0  0  0  0
    3.3548    0.9229    0.0000 C   0  0  0  0  0  0  0  0  0  0  0  0
    5.0868    0.9229    0.0000 C   0  0  0  0  0  0  0  0  0  0  0  0
    6.8909   -3.6294    0.0000 C   0  0  0  0  0  0  0  0  0  0  0  0
    3.3548    1.9230    0.0000 C   0  0  0  0  0  0  0  0  0  0  0  0
    7.8854   -3.5249    0.0000 C   0  0  0  0  0  0  0  0  0  0  0  0
    4.2208    2.4230    0.0000 C   0  0  0  0  0  0  0  0  0  0  0  0
    8.4732   -4.3339    0.0000 C   0  0  0  0  0  0  0  0  0  0  0  0
    8.2922   -2.6113    0.0000 C   0  0  0  0  0  0  0  0  0  0  0  0
    3.1085   -2.0189    0.0000 H   0  0  0  0  0  0  0  0  0  0  0  0
    2.9734   -1.6032    0.0000 H   0  0  0  0  0  0  0  0  0  0  0  0
    5.3332   -2.0189    0.0000 H   0  0  0  0  0  0  0  0  0  0  0  0
    3.6684   -0.2956    0.0000 H   0  0  0  0  0  0  0  0  0  0  0  0
    4.7514   -3.1967    0.0000 H   0  0  0  0  0  0  0  0  0  0  0  0
    5.4795   -3.5209    0.0000 H   0  0  0  0  0  0  0  0  0  0  0  0
    3.3852   -3.4913    0.0000 H   0  0  0  0  0  0  0  0  0  0  0  0
    2.0000   -1.2707    0.0000 H   0  0  0  0  0  0  0  0  0  0  0  0
    2.8179    0.6129    0.0000 H   0  0  0  0  0  0  0  0  0  0  0  0
    2.8179    2.2330    0.0000 H   0  0  0  0  0  0  0  0  0  0  0  0
    7.5210   -3.0233    0.0000 H   0  0  0  0  0  0  0  0  0  0  0  0
    7.9716   -4.6983    0.0000 H   0  0  0  0  0  0  0  0  0  0  0  0
    8.8376   -4.8355    0.0000 H   0  0  0  0  0  0  0  0  0  0  0  0
    8.9748   -3.9695    0.0000 H   0  0  0  0  0  0  0  0  0  0  0  0
    8.8586   -2.8635    0.0000 H   0  0  0  0  0  0  0  0  0  0  0  0
    8.5444   -2.0449    0.0000 H   0  0  0  0  0  0  0  0  0  0  0  0
    7.7258   -2.3592    0.0000 H   0  0  0  0  0  0  0  0  0  0  0  0
    4.7578    3.7330    0.0000 H   0  0  0  0  0  0  0  0  0  0  0  0
    3.3548    4.5430    0.0000 H   0  0  0  0  0  0  0  0  0  0  0  0
  1 13  1  0  0  0  0
  1 14  1  0  0  0  0
 11  2  1  1  0  0  0
  2 30  1  0  0  0  0
 12  3  1  1  0  0  0
  3 31  1  0  0  0  0
  4 15  1  0  0  0  0
  4 18  1  0  0  0  0
  5 17  2  0  0  0  0
  6 18  2  0  0  0  0
  7 10  1  0  0  0  0
  7 42  1  0  0  0  0
 14  8  1  6  0  0  0
  8 16  1  0  0  0  0
  8 17  1  0  0  0  0
  9 17  1  0  0  0  0
  9 21  2  0  0  0  0
 10 21  1  0  0  0  0
 10 41  1  0  0  0  0
 11 12  1  0  0  0  0
 11 13  1  0  0  0  0
 11 24  1  0  0  0  0
 12 14  1  0  0  0  0
 12 25  1  0  0  0  0
 13 15  1  6  0  0  0
 13 26  1  0  0  0  0
 14 27  1  0  0  0  0
 15 28  1  0  0  0  0
 15 29  1  0  0  0  0
 16 19  2  0  0  0  0
 16 32  1  0  0  0  0
 18 20  1  0  0  0  0
 19 21  1  0  0  0  0
 19 33  1  0  0  0  0
 20 22  1  0  0  0  0
 20 23  1  0  0  0  0
 20 34  1  0  0  0  0
 22 35  1  0  0  0  0
 22 36  1  0  0  0  0
 22 37  1  0  0  0  0
 23 38  1  0  0  0  0
 23 39  1  0  0  0  0
 23 40  1  0  0  0  0
M  END
> <PUBCHEM_COMPOUND_CID>
145996610

> <PUBCHEM_COMPOUND_CANONICALIZED>
1

> <PUBCHEM_CACTVS_COMPLEXITY>
534

> <PUBCHEM_CACTVS_HBOND_ACCEPTOR>
7

> <PUBCHEM_CACTVS_HBOND_DONOR>
4

> <PUBCHEM_CACTVS_ROTATABLE_BOND>
6

> <PUBCHEM_CACTVS_SUBSKEYS>
AAADceBzOAAAAAAAAAAAAAAAAAAAASAAAAAgAAAAAAAAAAAAAAAAHgAUCAAADRThgAYDCANQBgCoACL2fACAAAEAAgAoAAEYABCDEAIAgAAOQAAHFgITAADwMAoAAAAAAAAAAAAAAAAAAAAAAAAAAAAAAA==

> <PUBCHEM_IUPAC_OPENEYE_NAME>
[(2R,3S,4R,5R)-3,4-dihydroxy-5-[4-(hydroxyamino)-2-oxo-pyrimidin-1-yl]tetrahydrofuran-2-yl]methyl 2-methylpropanoate

> <PUBCHEM_IUPAC_CAS_NAME>
2-methylpropanoic acid [(2R,3S,4R,5R)-3,4-dihydroxy-5-[4-(hydroxyamino)-2-oxo-1-pyrimidinyl]-2-oxolanyl]methyl ester

> <PUBCHEM_IUPAC_NAME_MARKUP>
[(2<I>R</I>,3<I>S</I>,4<I>R</I>,5<I>R</I>)-3,4-dihydroxy-5-[4-(hydroxyamino)-2-oxopyrimidin-1-yl]oxolan-2-yl]methyl 2-methylpropanoate

> <PUBCHEM_IUPAC_NAME>
[(2R,3S,4R,5R)-3,4-dihydroxy-5-[4-(hydroxyamino)-2-oxopyrimidin-1-yl]oxolan-2-yl]methyl 2-methylpropanoate

> <PUBCHEM_IUPAC_SYSTEMATIC_NAME>
[(2R,3S,4R,5R)-3,4-bis(oxidanyl)-5-[4-(oxidanylamino)-2-oxidanylidene-pyrimidin-1-yl]oxolan-2-yl]methyl 2-methylpropanoate

> <PUBCHEM_IUPAC_TRADITIONAL_NAME>
2-methylpropionic acid [(2R,3S,4R,5R)-3,4-dihydroxy-5-[4-(hydroxyamino)-2-keto-pyrimidin-1-yl]tetrahydrofuran-2-yl]methyl ester

> <PUBCHEM_IUPAC_INCHI>
InChI=1S/C13H19N3O7/c1-6(2)12(19)22-5-7-9(17)10(18)11(23-7)16-4-3-8(15-21)14-13(16)20/h3-4,6-7,9-11,17-18,21H,5H2,1-2H3,(H,14,15,20)/t7-,9-,10-,11-/m1/s1

> <PUBCHEM_IUPAC_INCHIKEY>
HTNPEHXGEKVIHG-QCNRFFRDSA-N

> <PUBCHEM_XLOGP3>
-0.8

> <PUBCHEM_EXACT_MASS>
329.12229995

> <PUBCHEM_MOLECULAR_FORMULA>
C13H19N3O7

> <PUBCHEM_MOLECULAR_WEIGHT>
329.31

> <PUBCHEM_OPENEYE_CAN_SMILES>
CC(C)C(=O)OCC1C(C(C(O1)N2C=CC(=NC2=O)NO)O)O

> <PUBCHEM_OPENEYE_ISO_SMILES>
CC(C)C(=O)OC[C@@H]1[C@H]([C@H]([C@@H](O1)N2C=CC(=NC2=O)NO)O)O

> <PUBCHEM_CACTVS_TPSA>
141

> <PUBCHEM_MONOISOTOPIC_WEIGHT>
329.12229995

> <PUBCHEM_TOTAL_CHARGE>
0

> <PUBCHEM_HEAVY_ATOM_COUNT>
23

> <PUBCHEM_ATOM_DEF_STEREO_COUNT>
4

> <PUBCHEM_ATOM_UDEF_STEREO_COUNT>
0

> <PUBCHEM_BOND_DEF_STEREO_COUNT>
0

> <PUBCHEM_BOND_UDEF_STEREO_COUNT>
0

> <PUBCHEM_ISOTOPIC_ATOM_COUNT>
0

> <PUBCHEM_COMPONENT_COUNT>
1

> <PUBCHEM_CACTVS_TAUTO_COUNT>
-1

> <PUBCHEM_COORDINATE_TYPE>
1
5
255

> <PUBCHEM_BONDANNOTATIONS>
13  15  6
16  19  8
19  21  8
11  2  5
12  3  5
14  8  6
8  16  8
8  17  8
9  17  8
9  21  8

$$$$
443363
  -OEChem-03012215082D

 75 76  0     1  0  0  0  0  0999 V2000
   10.6603    7.1550    0.0000 S   0  0  0  0  0  0  0  0  0  0  0  0
    8.0622    5.6550    0.0000 O   0  0  0  0  0  0  0  0  0  0  0  0
   11.5263    4.6550    0.0000 O   0  0  0  0  0  0  0  0  0  0  0  0
    5.4641    3.1550    0.0000 O   0  0  0  0  0  0  0  0  0  0  0  0
   10.6603    3.1550    0.0000 O   0  0  0  0  0  0  0  0  0  0  0  0
    2.8660   -1.3450    0.0000 O   0  0  0  0  0  0  0  0  0  0  0  0
    6.3301   -0.3450    0.0000 O   0  0  0  0  0  0  0  0  0  0  0  0
    2.8660   -7.3450    0.0000 O   0  0  0  0  0  0  0  0  0  0  0  0
    8.9282    4.1550    0.0000 N   0  0  0  0  0  0  0  0  0  0  0  0
    7.1962    3.1550    0.0000 N   0  0  0  0  0  0  0  0  0  0  0  0
    5.4641    1.1550    0.0000 N   0  0  0  0  0  0  0  0  0  0  0  0
    4.5981   -1.3450    0.0000 N   0  0  0  0  0  0  0  0  0  0  0  0
    4.5981   -3.3450    0.0000 N   0  0  0  0  0  0  0  0  0  0  0  0
    7.1962    4.1550    0.0000 C   0  0  1  0  0  0  0  0  0  0  0  0
    6.3301    4.6550    0.0000 C   0  0  0  0  0  0  0  0  0  0  0  0
    9.7942    4.6550    0.0000 C   0  0  1  0  0  0  0  0  0  0  0  0
    8.0622    4.6550    0.0000 C   0  0  0  0  0  0  0  0  0  0  0  0
    9.7942    5.6550    0.0000 C   0  0  0  0  0  0  0  0  0  0  0  0
    6.3301    5.6550    0.0000 C   0  0  0  0  0  0  0  0  0  0  0  0
   10.6603    6.1550    0.0000 C   0  0  0  0  0  0  0  0  0  0  0  0
    6.3301    2.6550    0.0000 C   0  0  0  0  0  0  0  0  0  0  0  0
   10.6603    4.1550    0.0000 C   0  0  0  0  0  0  0  0  0  0  0  0
    3.7320   -2.8450    0.0000 C   0  0  1  0  0  0  0  0  0  0  0  0
    5.4641    6.1550    0.0000 C   0  0  0  0  0  0  0  0  0  0  0  0
    7.1962    6.1550    0.0000 C   0  0  0  0  0  0  0  0  0  0  0  0
    2.8660   -3.3450    0.0000 C   0  0  0  0  0  0  0  0  0  0  0  0
    6.3301    1.6550    0.0000 C   0  0  0  0  0  0  0  0  0  0  0  0
    2.8660   -4.3450    0.0000 C   0  0  0  0  0  0  0  0  0  0  0  0
    3.7320   -1.8450    0.0000 C   0  0  0  0  0  0  0  0  0  0  0  0
    5.4641    7.1550    0.0000 C   0  0  0  0  0  0  0  0  0  0  0  0
    7.1962    7.1550    0.0000 C   0  0  0  0  0  0  0  0  0  0  0  0
    4.5981   -0.3450    0.0000 C   0  0  0  0  0  0  0  0  0  0  0  0
    6.3301    7.6550    0.0000 C   0  0  0  0  0  0  0  0  0  0  0  0
    5.4641    0.1550    0.0000 C   0  0  0  0  0  0  0  0  0  0  0  0
    3.7320   -4.8450    0.0000 C   0  0  0  0  0  0  0  0  0  0  0  0
    2.0000   -4.8450    0.0000 C   0  0  0  0  0  0  0  0  0  0  0  0
    3.7320   -5.8450    0.0000 C   0  0  0  0  0  0  0  0  0  0  0  0
    2.0000   -5.8450    0.0000 C   0  0  0  0  0  0  0  0  0  0  0  0
   11.5263    7.6550    0.0000 C   0  0  0  0  0  0  0  0  0  0  0  0
    2.8660   -6.3450    0.0000 C   0  0  0  0  0  0  0  0  0  0  0  0
    6.6592    3.8450    0.0000 H   0  0  0  0  0  0  0  0  0  0  0  0
    5.7196    4.7627    0.0000 H   0  0  0  0  0  0  0  0  0  0  0  0
    6.1181    4.0724    0.0000 H   0  0  0  0  0  0  0  0  0  0  0  0
    9.2573    4.9650    0.0000 H   0  0  0  0  0  0  0  0  0  0  0  0
    9.5822    6.2376    0.0000 H   0  0  0  0  0  0  0  0  0  0  0  0
    9.1836    5.5473    0.0000 H   0  0  0  0  0  0  0  0  0  0  0  0
    8.9282    3.5350    0.0000 H   0  0  0  0  0  0  0  0  0  0  0  0
    7.7331    2.8450    0.0000 H   0  0  0  0  0  0  0  0  0  0  0  0
   10.8723    5.5724    0.0000 H   0  0  0  0  0  0  0  0  0  0  0  0
   11.2708    6.2627    0.0000 H   0  0  0  0  0  0  0  0  0  0  0  0
    3.7320   -3.4650    0.0000 H   0  0  0  0  0  0  0  0  0  0  0  0
    2.6540   -2.7624    0.0000 H   0  0  0  0  0  0  0  0  0  0  0  0
    2.2554   -3.4527    0.0000 H   0  0  0  0  0  0  0  0  0  0  0  0
    4.9272    5.8450    0.0000 H   0  0  0  0  0  0  0  0  0  0  0  0
    7.7331    5.8450    0.0000 H   0  0  0  0  0  0  0  0  0  0  0  0
    6.5422    1.0724    0.0000 H   0  0  0  0  0  0  0  0  0  0  0  0
    6.9407    1.7627    0.0000 H   0  0  0  0  0  0  0  0  0  0  0  0
    4.9272    7.4650    0.0000 H   0  0  0  0  0  0  0  0  0  0  0  0
    7.7331    7.4650    0.0000 H   0  0  0  0  0  0  0  0  0  0  0  0
    4.9272    1.4650    0.0000 H   0  0  0  0  0  0  0  0  0  0  0  0
    4.3860    0.2376    0.0000 H   0  0  0  0  0  0  0  0  0  0  0  0
    3.9875   -0.4527    0.0000 H   0  0  0  0  0  0  0  0  0  0  0  0
    6.3301    8.2750    0.0000 H   0  0  0  0  0  0  0  0  0  0  0  0
    5.1350   -1.6550    0.0000 H   0  0  0  0  0  0  0  0  0  0  0  0
    5.1350   -3.0350    0.0000 H   0  0  0  0  0  0  0  0  0  0  0  0
    4.5981   -3.9650    0.0000 H   0  0  0  0  0  0  0  0  0  0  0  0
    4.2690   -4.5350    0.0000 H   0  0  0  0  0  0  0  0  0  0  0  0
    1.4631   -4.5350    0.0000 H   0  0  0  0  0  0  0  0  0  0  0  0
   12.0632    4.3450    0.0000 H   0  0  0  0  0  0  0  0  0  0  0  0
    4.2690   -6.1550    0.0000 H   0  0  0  0  0  0  0  0  0  0  0  0
    1.4631   -6.1550    0.0000 H   0  0  0  0  0  0  0  0  0  0  0  0
   11.8363    7.1181    0.0000 H   0  0  0  0  0  0  0  0  0  0  0  0
   12.0632    7.9650    0.0000 H   0  0  0  0  0  0  0  0  0  0  0  0
   11.2163    8.1919    0.0000 H   0  0  0  0  0  0  0  0  0  0  0  0
    2.3291   -7.6550    0.0000 H   0  0  0  0  0  0  0  0  0  0  0  0
  1 20  1  0  0  0  0
  1 39  1  0  0  0  0
  2 17  2  0  0  0  0
  3 22  1  0  0  0  0
  3 69  1  0  0  0  0
  4 21  2  0  0  0  0
  5 22  2  0  0  0  0
  6 29  2  0  0  0  0
  7 34  2  0  0  0  0
  8 40  1  0  0  0  0
  8 75  1  0  0  0  0
 16  9  1  1  0  0  0
  9 17  1  0  0  0  0
  9 47  1  0  0  0  0
 14 10  1  1  0  0  0
 10 21  1  0  0  0  0
 10 48  1  0  0  0  0
 11 27  1  0  0  0  0
 11 34  1  0  0  0  0
 11 60  1  0  0  0  0
 12 29  1  0  0  0  0
 12 32  1  0  0  0  0
 12 64  1  0  0  0  0
 23 13  1  1  0  0  0
 13 65  1  0  0  0  0
 13 66  1  0  0  0  0
 14 15  1  0  0  0  0
 14 17  1  0  0  0  0
 14 41  1  0  0  0  0
 15 19  1  0  0  0  0
 15 42  1  0  0  0  0
 15 43  1  0  0  0  0
 16 18  1  0  0  0  0
 16 22  1  0  0  0  0
 16 44  1  0  0  0  0
 18 20  1  0  0  0  0
 18 45  1  0  0  0  0
 18 46  1  0  0  0  0
 19 24  2  0  0  0  0
 19 25  1  0  0  0  0
 20 49  1  0  0  0  0
 20 50  1  0  0  0  0
 21 27  1  0  0  0  0
 23 26  1  0  0  0  0
 23 29  1  0  0  0  0
 23 51  1  0  0  0  0
 24 30  1  0  0  0  0
 24 54  1  0  0  0  0
 25 31  2  0  0  0  0
 25 55  1  0  0  0  0
 26 28  1  0  0  0  0
 26 52  1  0  0  0  0
 26 53  1  0  0  0  0
 27 56  1  0  0  0  0
 27 57  1  0  0  0  0
 28 35  2  0  0  0  0
 28 36  1  0  0  0  0
 30 33  2  0  0  0  0
 30 58  1  0  0  0  0
 31 33  1  0  0  0  0
 31 59  1  0  0  0  0
 32 34  1  0  0  0  0
 32 61  1  0  0  0  0
 32 62  1  0  0  0  0
 33 63  1  0  0  0  0
 35 37  1  0  0  0  0
 35 67  1  0  0  0  0
 36 38  2  0  0  0  0
 36 68  1  0  0  0  0
 37 40  2  0  0  0  0
 37 70  1  0  0  0  0
 38 40  1  0  0  0  0
 38 71  1  0  0  0  0
 39 72  1  0  0  0  0
 39 73  1  0  0  0  0
 39 74  1  0  0  0  0
M  END
> <PUBCHEM_COMPOUND_CID>
443363

> <PUBCHEM_COMPOUND_CANONICALIZED>
1

> <PUBCHEM_CACTVS_COMPLEXITY>
847

> <PUBCHEM_CACTVS_HBOND_ACCEPTOR>
9

> <PUBCHEM_CACTVS_HBOND_DONOR>
7

> <PUBCHEM_CACTVS_ROTATABLE_BOND>
16

> <PUBCHEM_CACTVS_SUBSKEYS>
AAADcfB7uABAAAAAAAAAAAAAAAAAAAAAAAAwYAAAAAAAAAABQAAAHgQQCAAADCzF2ASyDoLAAgiIAiHSGAACAAAgIBAIiIGOCIgKZjKikTOUcAAk1hGYmAeYyKCOIAAAAAAAAABAAAAAAAAAAAAAAAAAAA==

> <PUBCHEM_IUPAC_OPENEYE_NAME>
(2S)-2-[[(2S)-2-[[2-[[2-[[(2S)-2-amino-3-(4-hydroxyphenyl)propanoyl]amino]acetyl]amino]acetyl]amino]-3-phenyl-propanoyl]amino]-4-methylsulfanyl-butanoic acid

> <PUBCHEM_IUPAC_CAS_NAME>
(2S)-2-[[(2S)-2-[[2-[[2-[[(2S)-2-amino-3-(4-hydroxyphenyl)-1-oxopropyl]amino]-1-oxoethyl]amino]-1-oxoethyl]amino]-1-oxo-3-phenylpropyl]amino]-4-(methylthio)butanoic acid

> <PUBCHEM_IUPAC_NAME_MARKUP>
(2<I>S</I>)-2-[[(2<I>S</I>)-2-[[2-[[2-[[(2<I>S</I>)-2-amino-3-(4-hydroxyphenyl)propanoyl]amino]acetyl]amino]acetyl]amino]-3-phenylpropanoyl]amino]-4-methylsulfanylbutanoic acid

> <PUBCHEM_IUPAC_NAME>
(2S)-2-[[(2S)-2-[[2-[[2-[[(2S)-2-amino-3-(4-hydroxyphenyl)propanoyl]amino]acetyl]amino]acetyl]amino]-3-phenylpropanoyl]amino]-4-methylsulfanylbutanoic acid

> <PUBCHEM_IUPAC_SYSTEMATIC_NAME>
(2S)-2-[[(2S)-2-[2-[2-[[(2S)-2-azanyl-3-(4-hydroxyphenyl)propanoyl]amino]ethanoylamino]ethanoylamino]-3-phenyl-propanoyl]amino]-4-methylsulfanyl-butanoic acid

> <PUBCHEM_IUPAC_TRADITIONAL_NAME>
(2S)-2-[[(2S)-2-[[2-[[2-[[(2S)-2-amino-3-(4-hydroxyphenyl)propanoyl]amino]acetyl]amino]acetyl]amino]-3-phenyl-propanoyl]amino]-4-(methylthio)butyric acid

> <PUBCHEM_IUPAC_INCHI>
InChI=1S/C27H35N5O7S/c1-40-12-11-21(27(38)39)32-26(37)22(14-17-5-3-2-4-6-17)31-24(35)16-29-23(34)15-30-25(36)20(28)13-18-7-9-19(33)10-8-18/h2-10,20-22,33H,11-16,28H2,1H3,(H,29,34)(H,30,36)(H,31,35)(H,32,37)(H,38,39)/t20-,21-,22-/m0/s1

> <PUBCHEM_IUPAC_INCHIKEY>
YFGBQHOOROIVKG-FKBYEOEOSA-N

> <PUBCHEM_XLOGP3>
-2.1

> <PUBCHEM_EXACT_MASS>
573.22571965

> <PUBCHEM_MOLECULAR_FORMULA>
C27H35N5O7S

> <PUBCHEM_MOLECULAR_WEIGHT>
573.7

> <PUBCHEM_OPENEYE_CAN_SMILES>
CSCCC(C(=O)O)NC(=O)C(CC1=CC=CC=C1)NC(=O)CNC(=O)CNC(=O)C(CC2=CC=C(C=C2)O)N

> <PUBCHEM_OPENEYE_ISO_SMILES>
CSCC[C@@H](C(=O)O)NC(=O)[C@H](CC1=CC=CC=C1)NC(=O)CNC(=O)CNC(=O)[C@H](CC2=CC=C(C=C2)O)N

> <PUBCHEM_CACTVS_TPSA>
225

> <PUBCHEM_MONOISOTOPIC_WEIGHT>
573.22571965

> <PUBCHEM_TOTAL_CHARGE>
0

> <PUBCHEM_HEAVY_ATOM_COUNT>
40

> <PUBCHEM_ATOM_DEF_STEREO_COUNT>
3

> <PUBCHEM_ATOM_UDEF_STEREO_COUNT>
0

> <PUBCHEM_BOND_DEF_STEREO_COUNT>
0

> <PUBCHEM_BOND_UDEF_STEREO_COUNT>
0

> <PUBCHEM_ISOTOPIC_ATOM_COUNT>
0

> <PUBCHEM_COMPONENT_COUNT>
1

> <PUBCHEM_CACTVS_TAUTO_COUNT>
32

> <PUBCHEM_COORDINATE_TYPE>
1
5
255

> <PUBCHEM_BONDANNOTATIONS>
14  10  5
23  13  5
19  24  8
19  25  8
24  30  8
25  31  8
28  35  8
28  36  8
30  33  8
31  33  8
35  37  8
36  38  8
37  40  8
38  40  8
16  9  5

$$$$
16131138
  -OEChem-03012215082D

221226  0     1  0  0  0  0  0999 V2000
   13.6804    5.2603    0.0000 S   0  0  0  0  0  0  0  0  0  0  0  0
    7.2454  -10.4762    0.0000 O   0  0  0  0  0  0  0  0  0  0  0  0
    6.0010  -11.0302    0.0000 O   0  0  0  0  0  0  0  0  0  0  0  0
    2.5369  -12.0302    0.0000 O   0  0  0  0  0  0  0  0  0  0  0  0
    3.4030  -13.5302    0.0000 O   0  0  0  0  0  0  0  0  0  0  0  0
   10.8417  -10.2183    0.0000 O   0  0  0  0  0  0  0  0  0  0  0  0
   10.7223   -6.6147    0.0000 O   0  0  0  0  0  0  0  0  0  0  0  0
   10.9302   -5.6366    0.0000 O   0  0  0  0  0  0  0  0  0  0  0  0
   12.5050   -2.3931    0.0000 O   0  0  0  0  0  0  0  0  0  0  0  0
   12.7129   -1.4149    0.0000 O   0  0  0  0  0  0  0  0  0  0  0  0
   10.5009    0.1720    0.0000 O   0  0  0  0  0  0  0  0  0  0  0  0
    9.6224    3.6689    0.0000 O   0  0  0  0  0  0  0  0  0  0  0  0
   12.2115    6.1782    0.0000 O   0  0  0  0  0  0  0  0  0  0  0  0
    7.6236    3.7387    0.0000 O   0  0  0  0  0  0  0  0  0  0  0  0
    9.2738    8.0139    0.0000 O   0  0  0  0  0  0  0  0  0  0  0  0
    7.5632    2.0077    0.0000 O   0  0  0  0  0  0  0  0  0  0  0  0
    9.8037    8.8619    0.0000 O   0  0  0  0  0  0  0  0  0  0  0  0
    9.3343    9.7449    0.0000 O   0  0  0  0  0  0  0  0  0  0  0  0
    9.4552   13.2069    0.0000 O   0  0  0  0  0  0  0  0  0  0  0  0
   14.4521   13.0324    0.0000 O   0  0  0  0  0  0  0  0  0  0  0  0
    7.7806  -12.1235    0.0000 N   0  0  0  0  0  0  0  0  0  0  0  0
    5.1350  -12.5302    0.0000 N   0  0  0  0  0  0  0  0  0  0  0  0
    9.1475   -9.8582    0.0000 N   0  0  0  0  0  0  0  0  0  0  0  0
   11.2575   -8.2620    0.0000 N   0  0  0  0  0  0  0  0  0  0  0  0
   13.0711  -12.2257    0.0000 N   0  0  0  0  0  0  0  0  0  0  0  0
   12.6244   -5.9967    0.0000 N   0  0  0  0  0  0  0  0  0  0  0  0
   11.3460   -3.6803    0.0000 N   0  0  0  0  0  0  0  0  0  0  0  0
   15.4111   -6.3867    0.0000 N   0  0  0  0  0  0  0  0  0  0  0  0
   11.0187   -1.0548    0.0000 N   0  0  0  0  0  0  0  0  0  0  0  0
   12.0302    0.9852    0.0000 N   0  0  0  0  0  0  0  0  0  0  0  0
   14.4071   -1.7751    0.0000 N   0  0  0  0  0  0  0  0  0  0  0  0
   11.0913    2.7511    0.0000 N   0  0  0  0  0  0  0  0  0  0  0  0
   10.6822    5.3650    0.0000 N   0  0  0  0  0  0  0  0  0  0  0  0
   13.6544    1.8426    0.0000 N   0  0  0  0  0  0  0  0  0  0  0  0
   11.2726    7.9441    0.0000 N   0  0  0  0  0  0  0  0  0  0  0  0
   15.2685    1.9554    0.0000 N   0  0  0  0  0  0  0  0  0  0  0  0
   15.5661   -0.4879    0.0000 N   0  0  0  0  0  0  0  0  0  0  0  0
   16.1013   -2.1352    0.0000 N   0  0  0  0  0  0  0  0  0  0  0  0
   10.8636   10.5580    0.0000 N   0  0  0  0  0  0  0  0  0  0  0  0
    8.3953   11.5108    0.0000 N   0  0  0  0  0  0  0  0  0  0  0  0
    6.8671  -12.5302    0.0000 C   0  0  1  0  0  0  0  0  0  0  0  0
    6.9716  -13.5247    0.0000 C   0  0  0  0  0  0  0  0  0  0  0  0
    7.9497  -13.7326    0.0000 C   0  0  0  0  0  0  0  0  0  0  0  0
    8.4497  -12.8666    0.0000 C   0  0  0  0  0  0  0  0  0  0  0  0
    7.9885  -11.1453    0.0000 C   0  0  0  0  0  0  0  0  0  0  0  0
    6.0010  -12.0302    0.0000 C   0  0  0  0  0  0  0  0  0  0  0  0
    8.9396  -10.8363    0.0000 C   0  0  2  0  0  0  0  0  0  0  0  0
    9.6827  -11.5054    0.0000 C   0  0  0  0  0  0  0  0  0  0  0  0
    4.2690  -12.0302    0.0000 C   0  0  1  0  0  0  0  0  0  0  0  0
   10.6338  -11.1964    0.0000 C   0  0  0  0  0  0  0  0  0  0  0  0
    4.2690  -11.0302    0.0000 C   0  0  0  0  0  0  0  0  0  0  0  0
   11.3769  -11.8656    0.0000 C   0  0  0  0  0  0  0  0  0  0  0  0
    3.4030  -12.5302    0.0000 C   0  0  0  0  0  0  0  0  0  0  0  0
   10.0985   -9.5491    0.0000 C   0  0  0  0  0  0  0  0  0  0  0  0
    3.4030  -10.5302    0.0000 C   0  0  0  0  0  0  0  0  0  0  0  0
    5.1350  -10.5302    0.0000 C   0  0  0  0  0  0  0  0  0  0  0  0
   12.3280  -11.5565    0.0000 C   0  0  0  0  0  0  0  0  0  0  0  0
   10.3065   -8.5710    0.0000 C   0  0  0  0  0  0  0  0  0  0  0  0
   12.4165   -6.9748    0.0000 C   0  0  2  0  0  0  0  0  0  0  0  0
   11.4654   -7.2838    0.0000 C   0  0  0  0  0  0  0  0  0  0  0  0
   13.1596   -7.6439    0.0000 C   0  0  0  0  0  0  0  0  0  0  0  0
   14.1107   -7.3349    0.0000 C   0  0  0  0  0  0  0  0  0  0  0  0
   12.0892   -4.3494    0.0000 C   0  0  2  0  0  0  0  0  0  0  0  0
   11.8812   -5.3275    0.0000 C   0  0  0  0  0  0  0  0  0  0  0  0
   13.0402   -4.0404    0.0000 C   0  0  0  0  0  0  0  0  0  0  0  0
   14.9144   -7.9199    0.0000 C   0  0  0  0  0  0  0  0  0  0  0  0
   14.4171   -6.3892    0.0000 C   0  0  0  0  0  0  0  0  0  0  0  0
   13.2481   -3.0622    0.0000 C   0  0  0  0  0  0  0  0  0  0  0  0
   15.7224   -7.3307    0.0000 C   0  0  0  0  0  0  0  0  0  0  0  0
   10.8108   -2.0330    0.0000 C   0  0  2  0  0  0  0  0  0  0  0  0
   11.5539   -2.7021    0.0000 C   0  0  0  0  0  0  0  0  0  0  0  0
   15.0207   -8.9143    0.0000 C   0  0  0  0  0  0  0  0  0  0  0  0
   14.1992   -2.7532    0.0000 C   0  0  0  0  0  0  0  0  0  0  0  0
    9.8597   -2.3420    0.0000 C   0  0  0  0  0  0  0  0  0  0  0  0
   16.6367   -7.7359    0.0000 C   0  0  0  0  0  0  0  0  0  0  0  0
   12.4997    0.1022    0.0000 C   0  0  2  0  0  0  0  0  0  0  0  0
   11.9697   -0.7458    0.0000 C   0  0  0  0  0  0  0  0  0  0  0  0
   15.9349   -9.3194    0.0000 C   0  0  0  0  0  0  0  0  0  0  0  0
   10.5613    1.9030    0.0000 C   0  0  2  0  0  0  0  0  0  0  0  0
   13.4991    0.0673    0.0000 C   0  0  0  0  0  0  0  0  0  0  0  0
   16.7429   -8.7302    0.0000 C   0  0  0  0  0  0  0  0  0  0  0  0
    9.1166   -1.6729    0.0000 C   0  0  0  0  0  0  0  0  0  0  0  0
   11.0308    1.0201    0.0000 C   0  0  0  0  0  0  0  0  0  0  0  0
    9.5619    1.9379    0.0000 C   0  0  0  0  0  0  0  0  0  0  0  0
   11.1517    4.4821    0.0000 C   0  0  2  0  0  0  0  0  0  0  0  0
   14.0290    0.9154    0.0000 C   0  0  0  0  0  0  0  0  0  0  0  0
   10.6218    3.6340    0.0000 C   0  0  0  0  0  0  0  0  0  0  0  0
   12.1511    4.4472    0.0000 C   0  0  0  0  0  0  0  0  0  0  0  0
    9.0925    2.8209    0.0000 C   0  0  0  0  0  0  0  0  0  0  0  0
    8.1655   -1.9819    0.0000 C   0  0  0  0  0  0  0  0  0  0  0  0
    9.3245   -0.6947    0.0000 C   0  0  0  0  0  0  0  0  0  0  0  0
   15.3582   -1.4660    0.0000 C   0  0  0  0  0  0  0  0  0  0  0  0
   10.7427    7.0960    0.0000 C   0  0  2  0  0  0  0  0  0  0  0  0
   15.0265    0.9851    0.0000 C   0  0  0  0  0  0  0  0  0  0  0  0
   12.6810    5.2952    0.0000 C   0  0  0  0  0  0  0  0  0  0  0  0
    7.4224   -1.3128    0.0000 C   0  0  0  0  0  0  0  0  0  0  0  0
    8.5814   -0.0256    0.0000 C   0  0  0  0  0  0  0  0  0  0  0  0
   11.2121    6.2131    0.0000 C   0  0  0  0  0  0  0  0  0  0  0  0
    7.6303   -0.3346    0.0000 C   0  0  0  0  0  0  0  0  0  0  0  0
    8.0931    2.8558    0.0000 C   0  0  0  0  0  0  0  0  0  0  0  0
   11.3330    9.6751    0.0000 C   0  0  2  0  0  0  0  0  0  0  0  0
   14.4204    2.4854    0.0000 C   0  0  0  0  0  0  0  0  0  0  0  0
    9.7433    7.1309    0.0000 C   0  0  0  0  0  0  0  0  0  0  0  0
   10.8031    8.8270    0.0000 C   0  0  0  0  0  0  0  0  0  0  0  0
   12.3324    9.6402    0.0000 C   0  0  0  0  0  0  0  0  0  0  0  0
   12.8624   10.4882    0.0000 C   0  0  0  0  0  0  0  0  0  0  0  0
    9.8642   10.5929    0.0000 C   0  0  0  0  0  0  0  0  0  0  0  0
   14.2103    6.1084    0.0000 C   0  0  0  0  0  0  0  0  0  0  0  0
    9.3947   11.4759    0.0000 C   0  0  2  0  0  0  0  0  0  0  0  0
   12.3929   11.3712    0.0000 C   0  0  0  0  0  0  0  0  0  0  0  0
   13.8617   10.4533    0.0000 C   0  0  0  0  0  0  0  0  0  0  0  0
    9.9246   12.3239    0.0000 C   0  0  0  0  0  0  0  0  0  0  0  0
   12.9228   12.2192    0.0000 C   0  0  0  0  0  0  0  0  0  0  0  0
   14.3917   11.3014    0.0000 C   0  0  0  0  0  0  0  0  0  0  0  0
   13.9222   12.1843    0.0000 C   0  0  0  0  0  0  0  0  0  0  0  0
    6.8995  -11.9111    0.0000 H   0  0  0  0  0  0  0  0  0  0  0  0
    6.3516  -13.5247    0.0000 H   0  0  0  0  0  0  0  0  0  0  0  0
    6.9068  -14.1413    0.0000 H   0  0  0  0  0  0  0  0  0  0  0  0
    7.7582  -14.3223    0.0000 H   0  0  0  0  0  0  0  0  0  0  0  0
    8.5161  -13.9848    0.0000 H   0  0  0  0  0  0  0  0  0  0  0  0
    8.9513  -13.2310    0.0000 H   0  0  0  0  0  0  0  0  0  0  0  0
    8.8646  -12.4059    0.0000 H   0  0  0  0  0  0  0  0  0  0  0  0
    9.5292  -10.6447    0.0000 H   0  0  0  0  0  0  0  0  0  0  0  0
    9.1942  -11.8871    0.0000 H   0  0  0  0  0  0  0  0  0  0  0  0
    9.9738  -12.0529    0.0000 H   0  0  0  0  0  0  0  0  0  0  0  0
    5.1350  -13.1502    0.0000 H   0  0  0  0  0  0  0  0  0  0  0  0
    4.2690  -12.6502    0.0000 H   0  0  0  0  0  0  0  0  0  0  0  0
   11.1223  -10.8147    0.0000 H   0  0  0  0  0  0  0  0  0  0  0  0
   10.3427  -10.6490    0.0000 H   0  0  0  0  0  0  0  0  0  0  0  0
    8.6867   -9.4433    0.0000 H   0  0  0  0  0  0  0  0  0  0  0  0
    4.8059  -11.3402    0.0000 H   0  0  0  0  0  0  0  0  0  0  0  0
   10.8884  -12.2473    0.0000 H   0  0  0  0  0  0  0  0  0  0  0  0
   11.6680  -12.4130    0.0000 H   0  0  0  0  0  0  0  0  0  0  0  0
    3.7130   -9.9933    0.0000 H   0  0  0  0  0  0  0  0  0  0  0  0
    2.8660  -10.2202    0.0000 H   0  0  0  0  0  0  0  0  0  0  0  0
    3.0930  -11.0671    0.0000 H   0  0  0  0  0  0  0  0  0  0  0  0
    5.4450  -11.0671    0.0000 H   0  0  0  0  0  0  0  0  0  0  0  0
    5.6720  -10.2202    0.0000 H   0  0  0  0  0  0  0  0  0  0  0  0
    4.8250   -9.9933    0.0000 H   0  0  0  0  0  0  0  0  0  0  0  0
   12.8165  -11.1748    0.0000 H   0  0  0  0  0  0  0  0  0  0  0  0
   12.0369  -11.0091    0.0000 H   0  0  0  0  0  0  0  0  0  0  0  0
   10.2202   -7.9570    0.0000 H   0  0  0  0  0  0  0  0  0  0  0  0
    9.6868   -8.5494    0.0000 H   0  0  0  0  0  0  0  0  0  0  0  0
    2.0000  -12.3402    0.0000 H   0  0  0  0  0  0  0  0  0  0  0  0
   11.7183   -8.6768    0.0000 H   0  0  0  0  0  0  0  0  0  0  0  0
   13.6608  -12.0341    0.0000 H   0  0  0  0  0  0  0  0  0  0  0  0
   12.9422  -12.8321    0.0000 H   0  0  0  0  0  0  0  0  0  0  0  0
   13.0061   -6.7832    0.0000 H   0  0  0  0  0  0  0  0  0  0  0  0
   12.6711   -8.0256    0.0000 H   0  0  0  0  0  0  0  0  0  0  0  0
   13.4507   -8.1914    0.0000 H   0  0  0  0  0  0  0  0  0  0  0  0
   13.2140   -5.8051    0.0000 H   0  0  0  0  0  0  0  0  0  0  0  0
   11.4995   -4.5410    0.0000 H   0  0  0  0  0  0  0  0  0  0  0  0
   13.1265   -4.6543    0.0000 H   0  0  0  0  0  0  0  0  0  0  0  0
   13.6598   -4.0620    0.0000 H   0  0  0  0  0  0  0  0  0  0  0  0
   14.0518   -5.8883    0.0000 H   0  0  0  0  0  0  0  0  0  0  0  0
   10.7564   -3.8718    0.0000 H   0  0  0  0  0  0  0  0  0  0  0  0
   13.1618   -2.4483    0.0000 H   0  0  0  0  0  0  0  0  0  0  0  0
   12.6285   -3.0406    0.0000 H   0  0  0  0  0  0  0  0  0  0  0  0
   11.4004   -1.8414    0.0000 H   0  0  0  0  0  0  0  0  0  0  0  0
   15.7738   -5.8838    0.0000 H   0  0  0  0  0  0  0  0  0  0  0  0
   14.5197   -9.2796    0.0000 H   0  0  0  0  0  0  0  0  0  0  0  0
   14.2855   -3.3672    0.0000 H   0  0  0  0  0  0  0  0  0  0  0  0
   14.8188   -2.7748    0.0000 H   0  0  0  0  0  0  0  0  0  0  0  0
    9.3712   -2.7237    0.0000 H   0  0  0  0  0  0  0  0  0  0  0  0
   10.1508   -2.8894    0.0000 H   0  0  0  0  0  0  0  0  0  0  0  0
   12.8282    0.6280    0.0000 H   0  0  0  0  0  0  0  0  0  0  0  0
   17.1376   -7.3706    0.0000 H   0  0  0  0  0  0  0  0  0  0  0  0
   10.4438   -0.8226    0.0000 H   0  0  0  0  0  0  0  0  0  0  0  0
   16.0008   -9.9359    0.0000 H   0  0  0  0  0  0  0  0  0  0  0  0
   10.2703    2.4505    0.0000 H   0  0  0  0  0  0  0  0  0  0  0  0
   13.3702   -0.5391    0.0000 H   0  0  0  0  0  0  0  0  0  0  0  0
   14.0739   -0.1649    0.0000 H   0  0  0  0  0  0  0  0  0  0  0  0
   17.3097   -8.9814    0.0000 H   0  0  0  0  0  0  0  0  0  0  0  0
   12.3587    1.5110    0.0000 H   0  0  0  0  0  0  0  0  0  0  0  0
    8.9723    1.7463    0.0000 H   0  0  0  0  0  0  0  0  0  0  0  0
    9.6482    1.3240    0.0000 H   0  0  0  0  0  0  0  0  0  0  0  0
   13.9463   -1.3602    0.0000 H   0  0  0  0  0  0  0  0  0  0  0  0
   11.4803    5.0079    0.0000 H   0  0  0  0  0  0  0  0  0  0  0  0
   11.7109    2.7294    0.0000 H   0  0  0  0  0  0  0  0  0  0  0  0
   12.0222    3.8407    0.0000 H   0  0  0  0  0  0  0  0  0  0  0  0
   12.7259    4.2149    0.0000 H   0  0  0  0  0  0  0  0  0  0  0  0
    9.6821    3.0125    0.0000 H   0  0  0  0  0  0  0  0  0  0  0  0
    9.0062    3.4348    0.0000 H   0  0  0  0  0  0  0  0  0  0  0  0
    8.0366   -2.5883    0.0000 H   0  0  0  0  0  0  0  0  0  0  0  0
    9.9142   -0.5031    0.0000 H   0  0  0  0  0  0  0  0  0  0  0  0
   10.0626    5.3867    0.0000 H   0  0  0  0  0  0  0  0  0  0  0  0
   13.0528    1.9926    0.0000 H   0  0  0  0  0  0  0  0  0  0  0  0
   10.4516    7.6434    0.0000 H   0  0  0  0  0  0  0  0  0  0  0  0
   15.4251    0.5102    0.0000 H   0  0  0  0  0  0  0  0  0  0  0  0
   12.8099    5.9017    0.0000 H   0  0  0  0  0  0  0  0  0  0  0  0
   12.1062    5.5275    0.0000 H   0  0  0  0  0  0  0  0  0  0  0  0
    6.8327   -1.5043    0.0000 H   0  0  0  0  0  0  0  0  0  0  0  0
    8.7102    0.5809    0.0000 H   0  0  0  0  0  0  0  0  0  0  0  0
    7.1695    0.0803    0.0000 H   0  0  0  0  0  0  0  0  0  0  0  0
   10.7134    9.6967    0.0000 H   0  0  0  0  0  0  0  0  0  0  0  0
   11.8922    7.9224    0.0000 H   0  0  0  0  0  0  0  0  0  0  0  0
   14.3772    3.1038    0.0000 H   0  0  0  0  0  0  0  0  0  0  0  0
    9.1536    6.9393    0.0000 H   0  0  0  0  0  0  0  0  0  0  0  0
    9.8296    6.5169    0.0000 H   0  0  0  0  0  0  0  0  0  0  0  0
   12.2035    9.0337    0.0000 H   0  0  0  0  0  0  0  0  0  0  0  0
   12.9073    9.4079    0.0000 H   0  0  0  0  0  0  0  0  0  0  0  0
   16.1557   -0.2963    0.0000 H   0  0  0  0  0  0  0  0  0  0  0  0
   15.1053   -0.0730    0.0000 H   0  0  0  0  0  0  0  0  0  0  0  0
   16.6910   -1.9436    0.0000 H   0  0  0  0  0  0  0  0  0  0  0  0
   11.1921   11.0838    0.0000 H   0  0  0  0  0  0  0  0  0  0  0  0
    7.0040    3.7604    0.0000 H   0  0  0  0  0  0  0  0  0  0  0  0
   14.7361    5.7798    0.0000 H   0  0  0  0  0  0  0  0  0  0  0  0
   14.5389    6.6342    0.0000 H   0  0  0  0  0  0  0  0  0  0  0  0
   13.6845    6.4369    0.0000 H   0  0  0  0  0  0  0  0  0  0  0  0
    9.0662   10.9501    0.0000 H   0  0  0  0  0  0  0  0  0  0  0  0
    8.6542    8.0355    0.0000 H   0  0  0  0  0  0  0  0  0  0  0  0
   11.7733   11.3928    0.0000 H   0  0  0  0  0  0  0  0  0  0  0  0
   14.1528    9.9059    0.0000 H   0  0  0  0  0  0  0  0  0  0  0  0
   10.3854   11.9090    0.0000 H   0  0  0  0  0  0  0  0  0  0  0  0
   10.4132   12.7056    0.0000 H   0  0  0  0  0  0  0  0  0  0  0  0
   12.6317   12.7666    0.0000 H   0  0  0  0  0  0  0  0  0  0  0  0
   15.0113   11.2797    0.0000 H   0  0  0  0  0  0  0  0  0  0  0  0
    8.1042   12.0582    0.0000 H   0  0  0  0  0  0  0  0  0  0  0  0
    8.0668   10.9850    0.0000 H   0  0  0  0  0  0  0  0  0  0  0  0
    9.7837   13.7326    0.0000 H   0  0  0  0  0  0  0  0  0  0  0  0
   15.0717   13.0107    0.0000 H   0  0  0  0  0  0  0  0  0  0  0  0
  1 95  1  0  0  0  0
  1108  1  0  0  0  0
  2 45  2  0  0  0  0
  3 46  2  0  0  0  0
  4 53  1  0  0  0  0
  4144  1  0  0  0  0
  5 53  2  0  0  0  0
  6 54  2  0  0  0  0
  7 60  2  0  0  0  0
  8 64  2  0  0  0  0
  9 71  2  0  0  0  0
 10 77  2  0  0  0  0
 11 83  2  0  0  0  0
 12 87  2  0  0  0  0
 13 98  2  0  0  0  0
 14100  1  0  0  0  0
 14206  1  0  0  0  0
 15103  1  0  0  0  0
 15211  1  0  0  0  0
 16100  2  0  0  0  0
 17104  2  0  0  0  0
 18107  2  0  0  0  0
 19112  1  0  0  0  0
 19220  1  0  0  0  0
 20115  1  0  0  0  0
 20221  1  0  0  0  0
 21 41  1  0  0  0  0
 21 44  1  0  0  0  0
 21 45  1  0  0  0  0
 22 46  1  0  0  0  0
 49 22  1  6  0  0  0
 22126  1  0  0  0  0
 47 23  1  1  0  0  0
 23 54  1  0  0  0  0
 23130  1  0  0  0  0
 24 58  1  0  0  0  0
 24 60  1  0  0  0  0
 24145  1  0  0  0  0
 25 57  1  0  0  0  0
 25146  1  0  0  0  0
 25147  1  0  0  0  0
 59 26  1  1  0  0  0
 26 64  1  0  0  0  0
 26151  1  0  0  0  0
 63 27  1  1  0  0  0
 27 71  1  0  0  0  0
 27156  1  0  0  0  0
 28 67  1  0  0  0  0
 28 69  1  0  0  0  0
 28160  1  0  0  0  0
 70 29  1  6  0  0  0
 29 77  1  0  0  0  0
 29168  1  0  0  0  0
 76 30  1  1  0  0  0
 30 83  1  0  0  0  0
 30174  1  0  0  0  0
 31 73  1  0  0  0  0
 31 92  1  0  0  0  0
 31177  1  0  0  0  0
 79 32  1  6  0  0  0
 32 87  1  0  0  0  0
 32179  1  0  0  0  0
 85 33  1  1  0  0  0
 33 98  1  0  0  0  0
 33186  1  0  0  0  0
 34 86  1  0  0  0  0
 34102  1  0  0  0  0
 34187  1  0  0  0  0
 93 35  1  6  0  0  0
 35104  1  0  0  0  0
 35196  1  0  0  0  0
 36 94  1  0  0  0  0
 36102  2  0  0  0  0
 37 92  1  0  0  0  0
 37202  1  0  0  0  0
 37203  1  0  0  0  0
 38 92  2  0  0  0  0
 38204  1  0  0  0  0
101 39  1  1  0  0  0
 39107  1  0  0  0  0
 39205  1  0  0  0  0
109 40  1  1  0  0  0
 40218  1  0  0  0  0
 40219  1  0  0  0  0
 41 42  1  0  0  0  0
 41 46  1  1  0  0  0
 41116  1  0  0  0  0
 42 43  1  0  0  0  0
 42117  1  0  0  0  0
 42118  1  0  0  0  0
 43 44  1  0  0  0  0
 43119  1  0  0  0  0
 43120  1  0  0  0  0
 44121  1  0  0  0  0
 44122  1  0  0  0  0
 45 47  1  0  0  0  0
 47 48  1  0  0  0  0
 47123  1  0  0  0  0
 48 50  1  0  0  0  0
 48124  1  0  0  0  0
 48125  1  0  0  0  0
 49 51  1  0  0  0  0
 49 53  1  0  0  0  0
 49127  1  0  0  0  0
 50 52  1  0  0  0  0
 50128  1  0  0  0  0
 50129  1  0  0  0  0
 51 55  1  0  0  0  0
 51 56  1  0  0  0  0
 51131  1  0  0  0  0
 52 57  1  0  0  0  0
 52132  1  0  0  0  0
 52133  1  0  0  0  0
 54 58  1  0  0  0  0
 55134  1  0  0  0  0
 55135  1  0  0  0  0
 55136  1  0  0  0  0
 56137  1  0  0  0  0
 56138  1  0  0  0  0
 56139  1  0  0  0  0
 57140  1  0  0  0  0
 57141  1  0  0  0  0
 58142  1  0  0  0  0
 58143  1  0  0  0  0
 59 60  1  0  0  0  0
 59 61  1  0  0  0  0
 59148  1  0  0  0  0
 61 62  1  0  0  0  0
 61149  1  0  0  0  0
 61150  1  0  0  0  0
 62 66  1  0  0  0  0
 62 67  2  0  0  0  0
 63 64  1  0  0  0  0
 63 65  1  0  0  0  0
 63152  1  0  0  0  0
 65 68  1  0  0  0  0
 65153  1  0  0  0  0
 65154  1  0  0  0  0
 66 69  1  0  0  0  0
 66 72  2  0  0  0  0
 67155  1  0  0  0  0
 68 73  1  0  0  0  0
 68157  1  0  0  0  0
 68158  1  0  0  0  0
 69 75  2  0  0  0  0
 70 71  1  0  0  0  0
 70 74  1  0  0  0  0
 70159  1  0  0  0  0
 72 78  1  0  0  0  0
 72161  1  0  0  0  0
 73162  1  0  0  0  0
 73163  1  0  0  0  0
 74 82  1  0  0  0  0
 74164  1  0  0  0  0
 74165  1  0  0  0  0
 75 81  1  0  0  0  0
 75167  1  0  0  0  0
 76 77  1  0  0  0  0
 76 80  1  0  0  0  0
 76166  1  0  0  0  0
 78 81  2  0  0  0  0
 78169  1  0  0  0  0
 79 83  1  0  0  0  0
 79 84  1  0  0  0  0
 79170  1  0  0  0  0
 80 86  1  0  0  0  0
 80171  1  0  0  0  0
 80172  1  0  0  0  0
 81173  1  0  0  0  0
 82 90  2  0  0  0  0
 82 91  1  0  0  0  0
 84 89  1  0  0  0  0
 84175  1  0  0  0  0
 84176  1  0  0  0  0
 85 87  1  0  0  0  0
 85 88  1  0  0  0  0
 85178  1  0  0  0  0
 86 94  2  0  0  0  0
 88 95  1  0  0  0  0
 88180  1  0  0  0  0
 88181  1  0  0  0  0
 89100  1  0  0  0  0
 89182  1  0  0  0  0
 89183  1  0  0  0  0
 90 96  1  0  0  0  0
 90184  1  0  0  0  0
 91 97  2  0  0  0  0
 91185  1  0  0  0  0
 93 98  1  0  0  0  0
 93103  1  0  0  0  0
 93188  1  0  0  0  0
 94189  1  0  0  0  0
 95190  1  0  0  0  0
 95191  1  0  0  0  0
 96 99  2  0  0  0  0
 96192  1  0  0  0  0
 97 99  1  0  0  0  0
 97193  1  0  0  0  0
 99194  1  0  0  0  0
101104  1  0  0  0  0
101105  1  0  0  0  0
101195  1  0  0  0  0
102197  1  0  0  0  0
103198  1  0  0  0  0
103199  1  0  0  0  0
105106  1  0  0  0  0
105200  1  0  0  0  0
105201  1  0  0  0  0
106110  2  0  0  0  0
106111  1  0  0  0  0
107109  1  0  0  0  0
108207  1  0  0  0  0
108208  1  0  0  0  0
108209  1  0  0  0  0
109112  1  0  0  0  0
109210  1  0  0  0  0
110113  1  0  0  0  0
110212  1  0  0  0  0
111114  2  0  0  0  0
111213  1  0  0  0  0
112214  1  0  0  0  0
112215  1  0  0  0  0
113115  2  0  0  0  0
113216  1  0  0  0  0
114115  1  0  0  0  0
114217  1  0  0  0  0
M  END
> <PUBCHEM_COMPOUND_CID>
16131138

> <PUBCHEM_COMPOUND_CANONICALIZED>
1

> <PUBCHEM_CACTVS_COMPLEXITY>
3240

> <PUBCHEM_CACTVS_HBOND_ACCEPTOR>
24

> <PUBCHEM_CACTVS_HBOND_DONOR>
23

> <PUBCHEM_CACTVS_ROTATABLE_BOND>
50

> <PUBCHEM_CACTVS_SUBSKEYS>
AAADcfB//gBAAAAAAAAAAAAAAAAAAWLFgAAwYMAAAAAAAFgB/AAAHgQQCAAADSzl3ga/3vfJkgioAzX3fACCgC2xMrAJ2aG+fJiKfvbi2bOUcAhu9hPY2Ce83+KOoAAAAAACAABAAAAAAAQAAAAAAAAAAA==

> <PUBCHEM_IUPAC_OPENEYE_NAME>
(4S)-5-[[(1S)-2-[[(1S)-2-[[(1S)-1-[[(1S)-2-[[2-[[(1S)-5-amino-1-[(2S)-2-[[(1S)-1-carboxy-2-methyl-propyl]carbamoyl]pyrrolidine-1-carbonyl]pentyl]amino]-2-oxo-ethyl]amino]-1-(1H-indol-3-ylmethyl)-2-oxo-ethyl]carbamoyl]-4-guanidino-butyl]amino]-1-benzyl-2-oxo-ethyl]amino]-1-(1H-imidazol-5-ylmethyl)-2-oxo-ethyl]amino]-4-[[(2S)-2-[[(2S)-2-[[(2S)-2-[[(2S)-2-amino-3-hydroxy-propanoyl]amino]-3-(4-hydroxyphenyl)propanoyl]amino]-3-hydroxy-propanoyl]amino]-4-methylsulfanyl-butanoyl]amino]-5-oxo-pentanoic acid

> <PUBCHEM_IUPAC_CAS_NAME>
(4S)-5-[[(2S)-1-[[(2S)-1-[[(2S)-1-[[(2S)-1-[[2-[[(2S)-6-amino-1-[(2S)-2-[[[(1S)-1-carboxy-2-methylpropyl]amino]-oxomethyl]-1-pyrrolidinyl]-1-oxohexan-2-yl]amino]-2-oxoethyl]amino]-3-(1H-indol-3-yl)-1-oxopropan-2-yl]amino]-5-carbamimidamido-1-oxopentan-2-yl]amino]-1-oxo-3-phenylpropan-2-yl]amino]-3-(1H-imidazol-5-yl)-1-oxopropan-2-yl]amino]-4-[[(2S)-2-[[(2S)-2-[[(2S)-2-[[(2S)-2-amino-3-hydroxy-1-oxopropyl]amino]-3-(4-hydroxyphenyl)-1-oxopropyl]amino]-3-hydroxy-1-oxopropyl]amino]-4-(methylthio)-1-oxobutyl]amino]-5-oxopentanoic acid

> <PUBCHEM_IUPAC_NAME_MARKUP>
(4<I>S</I>)-5-[[(2<I>S</I>)-1-[[(2<I>S</I>)-1-[[(2<I>S</I>)-1-[[(2<I>S</I>)-1-[[2-[[(2<I>S</I>)-6-amino-1-[(2<I>S</I>)-2-[[(1<I>S</I>)-1-carboxy-2-methylpropyl]carbamoyl]pyrrolidin-1-yl]-1-oxohexan-2-yl]amino]-2-oxoethyl]amino]-3-(1<I>H</I>-indol-3-yl)-1-oxopropan-2-yl]amino]-5-carbamimidamido-1-oxopentan-2-yl]amino]-1-oxo-3-phenylpropan-2-yl]amino]-3-(1<I>H</I>-imidazol-5-yl)-1-oxopropan-2-yl]amino]-4-[[(2<I>S</I>)-2-[[(2<I>S</I>)-2-[[(2<I>S</I>)-2-[[(2<I>S</I>)-2-amino-3-hydroxypropanoyl]amino]-3-(4-hydroxyphenyl)propanoyl]amino]-3-hydroxypropanoyl]amino]-4-methylsulfanylbutanoyl]amino]-5-oxopentanoic acid

> <PUBCHEM_IUPAC_NAME>
(4S)-5-[[(2S)-1-[[(2S)-1-[[(2S)-1-[[(2S)-1-[[2-[[(2S)-6-amino-1-[(2S)-2-[[(1S)-1-carboxy-2-methylpropyl]carbamoyl]pyrrolidin-1-yl]-1-oxohexan-2-yl]amino]-2-oxoethyl]amino]-3-(1H-indol-3-yl)-1-oxopropan-2-yl]amino]-5-carbamimidamido-1-oxopentan-2-yl]amino]-1-oxo-3-phenylpropan-2-yl]amino]-3-(1H-imidazol-5-yl)-1-oxopropan-2-yl]amino]-4-[[(2S)-2-[[(2S)-2-[[(2S)-2-[[(2S)-2-amino-3-hydroxypropanoyl]amino]-3-(4-hydroxyphenyl)propanoyl]amino]-3-hydroxypropanoyl]amino]-4-methylsulfanylbutanoyl]amino]-5-oxopentanoic acid

> <PUBCHEM_IUPAC_SYSTEMATIC_NAME>
(4S)-5-[[(2S)-1-[[(2S)-1-[[(2S)-1-[[(2S)-1-[[2-[[(2S)-6-azanyl-1-[(2S)-2-[[(2S)-3-methyl-1-oxidanyl-1-oxidanylidene-butan-2-yl]carbamoyl]pyrrolidin-1-yl]-1-oxidanylidene-hexan-2-yl]amino]-2-oxidanylidene-ethyl]amino]-3-(1H-indol-3-yl)-1-oxidanylidene-propan-2-yl]amino]-5-carbamimidamido-1-oxidanylidene-pentan-2-yl]amino]-1-oxidanylidene-3-phenyl-propan-2-yl]amino]-3-(1H-imidazol-5-yl)-1-oxidanylidene-propan-2-yl]amino]-4-[[(2S)-2-[[(2S)-2-[[(2S)-2-[[(2S)-2-azanyl-3-oxidanyl-propanoyl]amino]-3-(4-hydroxyphenyl)propanoyl]amino]-3-oxidanyl-propanoyl]amino]-4-methylsulfanyl-butanoyl]amino]-5-oxidanylidene-pentanoic acid

> <PUBCHEM_IUPAC_TRADITIONAL_NAME>
(4S)-5-[[(1S)-2-[[(1S)-2-[[(1S)-1-[[(1S)-2-[[2-[[(1S)-5-amino-1-[(2S)-2-[[(1S)-1-carboxy-2-methyl-propyl]carbamoyl]pyrrolidine-1-carbonyl]pentyl]amino]-2-keto-ethyl]amino]-1-(1H-indol-3-ylmethyl)-2-keto-ethyl]carbamoyl]-4-guanidino-butyl]amino]-1-benzyl-2-keto-ethyl]amino]-1-(1H-imidazol-5-ylmethyl)-2-keto-ethyl]amino]-4-[[(2S)-2-[[(2S)-2-[[(2S)-2-[[(2S)-2-amino-3-hydroxy-propanoyl]amino]-3-(4-hydroxyphenyl)propanoyl]amino]-3-hydroxy-propanoyl]amino]-4-(methylthio)butanoyl]amino]-5-keto-valeric acid

> <PUBCHEM_IUPAC_INCHI>
InChI=1S/C75H106N20O19S/c1-41(2)62(74(113)114)94-72(111)59-19-12-29-95(59)73(112)53(17-9-10-27-76)85-60(99)37-83-64(103)56(33-44-35-82-49-16-8-7-15-47(44)49)91-65(104)50(18-11-28-81-75(78)79)86-68(107)55(31-42-13-5-4-6-14-42)90-70(109)57(34-45-36-80-40-84-45)92-66(105)51(24-25-61(100)101)87-67(106)52(26-30-115-3)88-71(110)58(39-97)93-69(108)54(89-63(102)48(77)38-96)32-43-20-22-46(98)23-21-43/h4-8,13-16,20-23,35-36,40-41,48,50-59,62,82,96-98H,9-12,17-19,24-34,37-39,76-77H2,1-3H3,(H,80,84)(H,83,103)(H,85,99)(H,86,107)(H,87,106)(H,88,110)(H,89,102)(H,90,109)(H,91,104)(H,92,105)(H,93,108)(H,94,111)(H,100,101)(H,113,114)(H4,78,79,81)/t48-,50-,51-,52-,53-,54-,55-,56-,57-,58-,59-,62-/m0/s1

> <PUBCHEM_IUPAC_INCHIKEY>
VGBVAARMQYYITG-DESRROFGSA-N

> <PUBCHEM_XLOGP3_AA>
-6.2

> <PUBCHEM_EXACT_MASS>
1622.76638241

> <PUBCHEM_MOLECULAR_FORMULA>
C75H106N20O19S

> <PUBCHEM_MOLECULAR_WEIGHT>
1623.8

> <PUBCHEM_OPENEYE_CAN_SMILES>
CC(C)C(C(=O)O)NC(=O)C1CCCN1C(=O)C(CCCCN)NC(=O)CNC(=O)C(CC2=CNC3=CC=CC=C32)NC(=O)C(CCCNC(=N)N)NC(=O)C(CC4=CC=CC=C4)NC(=O)C(CC5=CN=CN5)NC(=O)C(CCC(=O)O)NC(=O)C(CCSC)NC(=O)C(CO)NC(=O)C(CC6=CC=C(C=C6)O)NC(=O)C(CO)N

> <PUBCHEM_OPENEYE_ISO_SMILES>
CC(C)[C@@H](C(=O)O)NC(=O)[C@@H]1CCCN1C(=O)[C@H](CCCCN)NC(=O)CNC(=O)[C@H](CC2=CNC3=CC=CC=C32)NC(=O)[C@H](CCCNC(=N)N)NC(=O)[C@H](CC4=CC=CC=C4)NC(=O)[C@H](CC5=CN=CN5)NC(=O)[C@H](CCC(=O)O)NC(=O)[C@H](CCSC)NC(=O)[C@H](CO)NC(=O)[C@H](CC6=CC=C(C=C6)O)NC(=O)[C@H](CO)N

> <PUBCHEM_CACTVS_TPSA>
659

> <PUBCHEM_MONOISOTOPIC_WEIGHT>
1622.76638241

> <PUBCHEM_TOTAL_CHARGE>
0

> <PUBCHEM_HEAVY_ATOM_COUNT>
115

> <PUBCHEM_ATOM_DEF_STEREO_COUNT>
12

> <PUBCHEM_ATOM_UDEF_STEREO_COUNT>
0

> <PUBCHEM_BOND_DEF_STEREO_COUNT>
0

> <PUBCHEM_BOND_UDEF_STEREO_COUNT>
0

> <PUBCHEM_ISOTOPIC_ATOM_COUNT>
0

> <PUBCHEM_COMPONENT_COUNT>
1

> <PUBCHEM_CACTVS_TAUTO_COUNT>
-1

> <PUBCHEM_COORDINATE_TYPE>
1
5
255

> <PUBCHEM_BONDANNOTATIONS>
106  110  8
106  111  8
110  113  8
111  114  8
113  115  8
114  115  8
49  22  6
47  23  5
59  26  5
63  27  5
28  67  8
28  69  8
70  29  6
76  30  5
79  32  6
85  33  5
34  102  8
34  86  8
93  35  6
36  102  8
36  94  8
101  39  5
109  40  5
41  46  5
62  66  8
62  67  8
66  69  8
66  72  8
69  75  8
72  78  8
75  81  8
78  81  8
82  90  8
82  91  8
86  94  8
90  96  8
91  97  8
96  99  8
97  99  8

$$$$
6918155
  -OEChem-03012215082D

 83 88  0     1  0  0  0  0  0999 V2000
    9.0594   -0.5867    0.0000 O   0  0  0  0  0  0  0  0  0  0  0  0
    8.4073   -2.0478    0.0000 O   0  0  0  0  0  0  0  0  0  0  0  0
    6.4739    2.6871    0.0000 O   0  0  0  0  0  0  0  0  0  0  0  0
    8.8428    1.2362    0.0000 O   0  0  0  0  0  0  0  0  0  0  0  0
   10.4376    0.7147    0.0000 O   0  0  0  0  0  0  0  0  0  0  0  0
    2.0000    3.3314    0.0000 O   0  0  0  0  0  0  0  0  0  0  0  0
   11.6825   -0.4896    0.0000 O   0  0  0  0  0  0  0  0  0  0  0  0
    7.3399    0.1871    0.0000 C   0  0  1  0  0  0  0  0  0  0  0  0
    6.4739   -0.3129    0.0000 C   0  0  2  0  0  0  0  0  0  0  0  0
    5.6079    0.1871    0.0000 C   0  0  1  0  0  0  0  0  0  0  0  0
    8.0770   -0.4800    0.0000 C   0  0  1  0  0  0  0  0  0  0  0  0
    5.6079    1.1871    0.0000 C   0  0  2  0  0  0  0  0  0  0  0  0
    7.6718   -1.3878    0.0000 C   0  0  1  0  0  0  0  0  0  0  0  0
    6.6831   -1.2848    0.0000 C   0  0  0  0  0  0  0  0  0  0  0  0
    7.3399    1.1871    0.0000 C   0  0  0  0  0  0  0  0  0  0  0  0
    6.4739    1.6871    0.0000 C   0  0  2  0  0  0  0  0  0  0  0  0
    4.7140    1.7217    0.0000 C   0  0  1  0  0  0  0  0  0  0  0  0
    4.7140   -0.3476    0.0000 C   0  0  0  0  0  0  0  0  0  0  0  0
    7.9827    0.9531    0.0000 C   0  0  0  0  0  0  0  0  0  0  0  0
    9.2632   -1.5537    0.0000 C   0  0  1  0  0  0  0  0  0  0  0  0
    8.7722    0.2387    0.0000 C   0  0  0  0  0  0  0  0  0  0  0  0
    3.8079    0.1662    0.0000 C   0  0  0  0  0  0  0  0  0  0  0  0
    3.8079    1.2079    0.0000 C   0  0  0  0  0  0  0  0  0  0  0  0
    5.5838    2.2150    0.0000 C   0  0  0  0  0  0  0  0  0  0  0  0
   10.1763   -1.9612    0.0000 C   0  0  0  0  0  0  0  0  0  0  0  0
    4.7390    2.8064    0.0000 C   0  0  0  0  0  0  0  0  0  0  0  0
    9.7423   -0.0041    0.0000 C   0  0  0  0  0  0  0  0  0  0  0  0
    2.8641    1.7431    0.0000 C   0  0  0  0  0  0  0  0  0  0  0  0
   10.2800   -2.9558    0.0000 C   0  0  0  0  0  0  0  0  0  0  0  0
   10.9859   -1.3741    0.0000 C   0  0  0  0  0  0  0  0  0  0  0  0
    3.8079    3.3633    0.0000 C   0  0  0  0  0  0  0  0  0  0  0  0
    2.8641    2.8281    0.0000 C   0  0  0  0  0  0  0  0  0  0  0  0
   11.1932   -3.3633    0.0000 C   0  0  0  0  0  0  0  0  0  0  0  0
   11.8991   -1.7816    0.0000 C   0  0  0  0  0  0  0  0  0  0  0  0
   12.0027   -2.7763    0.0000 C   0  0  0  0  0  0  0  0  0  0  0  0
   11.4077    0.4719    0.0000 C   0  0  0  0  0  0  0  0  0  0  0  0
   12.1030    1.1907    0.0000 C   0  0  0  0  0  0  0  0  0  0  0  0
   13.0731    0.9479    0.0000 C   0  0  0  0  0  0  0  0  0  0  0  0
   11.8282    2.1522    0.0000 C   0  0  0  0  0  0  0  0  0  0  0  0
    5.7869   -0.8135    0.0000 H   0  0  0  0  0  0  0  0  0  0  0  0
    5.6144   -0.6629    0.0000 H   0  0  0  0  0  0  0  0  0  0  0  0
    6.3440    0.7621    0.0000 H   0  0  0  0  0  0  0  0  0  0  0  0
    7.3271   -2.1648    0.0000 H   0  0  0  0  0  0  0  0  0  0  0  0
    6.0666   -1.3508    0.0000 H   0  0  0  0  0  0  0  0  0  0  0  0
    6.6840   -1.9048    0.0000 H   0  0  0  0  0  0  0  0  0  0  0  0
    7.9505    1.0794    0.0000 H   0  0  0  0  0  0  0  0  0  0  0  0
    7.5520    1.7697    0.0000 H   0  0  0  0  0  0  0  0  0  0  0  0
    7.0108    1.9971    0.0000 H   0  0  0  0  0  0  0  0  0  0  0  0
    4.3203   -0.8266    0.0000 H   0  0  0  0  0  0  0  0  0  0  0  0
    5.1185   -0.8174    0.0000 H   0  0  0  0  0  0  0  0  0  0  0  0
    8.4577    0.5546    0.0000 H   0  0  0  0  0  0  0  0  0  0  0  0
    8.3812    1.4280    0.0000 H   0  0  0  0  0  0  0  0  0  0  0  0
    7.5078    1.3516    0.0000 H   0  0  0  0  0  0  0  0  0  0  0  0
    9.3073   -2.4025    0.0000 H   0  0  0  0  0  0  0  0  0  0  0  0
    3.1970    0.2723    0.0000 H   0  0  0  0  0  0  0  0  0  0  0  0
    3.5988   -0.4175    0.0000 H   0  0  0  0  0  0  0  0  0  0  0  0
    5.8896    1.6757    0.0000 H   0  0  0  0  0  0  0  0  0  0  0  0
    6.1231    2.5209    0.0000 H   0  0  0  0  0  0  0  0  0  0  0  0
    5.2780    2.7543    0.0000 H   0  0  0  0  0  0  0  0  0  0  0  0
   10.1121   -1.3445    0.0000 H   0  0  0  0  0  0  0  0  0  0  0  0
    5.2819    3.1060    0.0000 H   0  0  0  0  0  0  0  0  0  0  0  0
    7.0108    2.9971    0.0000 H   0  0  0  0  0  0  0  0  0  0  0  0
    9.4896   -0.5702    0.0000 H   0  0  0  0  0  0  0  0  0  0  0  0
   10.2560   -0.3512    0.0000 H   0  0  0  0  0  0  0  0  0  0  0  0
    2.3284    1.4310    0.0000 H   0  0  0  0  0  0  0  0  0  0  0  0
    9.6616   -2.9120    0.0000 H   0  0  0  0  0  0  0  0  0  0  0  0
   10.1295   -3.5573    0.0000 H   0  0  0  0  0  0  0  0  0  0  0  0
   11.3330   -0.8604    0.0000 H   0  0  0  0  0  0  0  0  0  0  0  0
   10.5403   -0.9430    0.0000 H   0  0  0  0  0  0  0  0  0  0  0  0
    3.8150    3.9833    0.0000 H   0  0  0  0  0  0  0  0  0  0  0  0
   10.8461   -3.8770    0.0000 H   0  0  0  0  0  0  0  0  0  0  0  0
   11.6388   -3.7944    0.0000 H   0  0  0  0  0  0  0  0  0  0  0  0
   12.5175   -1.8254    0.0000 H   0  0  0  0  0  0  0  0  0  0  0  0
   12.0496   -1.1802    0.0000 H   0  0  0  0  0  0  0  0  0  0  0  0
   12.2740   -3.3337    0.0000 H   0  0  0  0  0  0  0  0  0  0  0  0
   12.5989   -2.6059    0.0000 H   0  0  0  0  0  0  0  0  0  0  0  0
   12.5340    1.6363    0.0000 H   0  0  0  0  0  0  0  0  0  0  0  0
   12.9225    0.3464    0.0000 H   0  0  0  0  0  0  0  0  0  0  0  0
   13.6745    0.7974    0.0000 H   0  0  0  0  0  0  0  0  0  0  0  0
   13.2236    1.5494    0.0000 H   0  0  0  0  0  0  0  0  0  0  0  0
   12.4243    2.3225    0.0000 H   0  0  0  0  0  0  0  0  0  0  0  0
   11.6578    2.7483    0.0000 H   0  0  0  0  0  0  0  0  0  0  0  0
   11.2320    1.9818    0.0000 H   0  0  0  0  0  0  0  0  0  0  0  0
  1 11  1  0  0  0  0
  1 20  1  0  0  0  0
  2 13  1  0  0  0  0
  2 20  1  0  0  0  0
 16  3  1  1  0  0  0
  3 62  1  0  0  0  0
  4 21  2  0  0  0  0
  5 27  1  0  0  0  0
  5 36  1  0  0  0  0
  6 32  2  0  0  0  0
  7 36  2  0  0  0  0
  8  9  1  0  0  0  0
  8 11  1  0  0  0  0
  8 15  1  0  0  0  0
  8 19  1  1  0  0  0
  9 10  1  0  0  0  0
  9 14  1  0  0  0  0
  9 40  1  6  0  0  0
 10 12  1  0  0  0  0
 10 18  1  0  0  0  0
 10 41  1  1  0  0  0
 11 13  1  0  0  0  0
 11 21  1  1  0  0  0
 12 16  1  0  0  0  0
 12 17  1  0  0  0  0
 12 42  1  6  0  0  0
 13 14  1  0  0  0  0
 13 43  1  1  0  0  0
 14 44  1  0  0  0  0
 14 45  1  0  0  0  0
 15 16  1  0  0  0  0
 15 46  1  0  0  0  0
 15 47  1  0  0  0  0
 16 48  1  0  0  0  0
 17 23  1  0  0  0  0
 17 24  1  1  0  0  0
 17 26  1  0  0  0  0
 18 22  1  0  0  0  0
 18 49  1  0  0  0  0
 18 50  1  0  0  0  0
 19 51  1  0  0  0  0
 19 52  1  0  0  0  0
 19 53  1  0  0  0  0
 20 25  1  0  0  0  0
 20 54  1  1  0  0  0
 21 27  1  0  0  0  0
 22 23  1  0  0  0  0
 22 55  1  0  0  0  0
 22 56  1  0  0  0  0
 23 28  2  0  0  0  0
 24 57  1  0  0  0  0
 24 58  1  0  0  0  0
 24 59  1  0  0  0  0
 25 29  1  0  0  0  0
 25 30  1  0  0  0  0
 25 60  1  0  0  0  0
 26 31  2  0  0  0  0
 26 61  1  0  0  0  0
 27 63  1  0  0  0  0
 27 64  1  0  0  0  0
 28 32  1  0  0  0  0
 28 65  1  0  0  0  0
 29 33  1  0  0  0  0
 29 66  1  0  0  0  0
 29 67  1  0  0  0  0
 30 34  1  0  0  0  0
 30 68  1  0  0  0  0
 30 69  1  0  0  0  0
 31 32  1  0  0  0  0
 31 70  1  0  0  0  0
 33 35  1  0  0  0  0
 33 71  1  0  0  0  0
 33 72  1  0  0  0  0
 34 35  1  0  0  0  0
 34 73  1  0  0  0  0
 34 74  1  0  0  0  0
 35 75  1  0  0  0  0
 35 76  1  0  0  0  0
 36 37  1  0  0  0  0
 37 38  1  0  0  0  0
 37 39  1  0  0  0  0
 37 77  1  0  0  0  0
 38 78  1  0  0  0  0
 38 79  1  0  0  0  0
 38 80  1  0  0  0  0
 39 81  1  0  0  0  0
 39 82  1  0  0  0  0
 39 83  1  0  0  0  0
M  END
> <PUBCHEM_COMPOUND_CID>
6918155

> <PUBCHEM_COMPOUND_CANONICALIZED>
1

> <PUBCHEM_CACTVS_COMPLEXITY>
1100

> <PUBCHEM_CACTVS_HBOND_ACCEPTOR>
7

> <PUBCHEM_CACTVS_HBOND_DONOR>
1

> <PUBCHEM_CACTVS_ROTATABLE_BOND>
6

> <PUBCHEM_CACTVS_SUBSKEYS>
AAADcfB8OAAAAAAAAAAAAAAAAAAAAaIAAAAwYMEAAAASAGDAAAAAGgAACAAAD1SwgAMCCAAABgCIAqDSCAIAAAAgAAAICAFAAEgREBYAAQQiQAAFoAAOAYPI7PzPgAAAAAAAAADAAAYAADAAAYAADCAAAA==

> <PUBCHEM_IUPAC_OPENEYE_NAME>
[2-[(1S,2S,4R,6R,8S,9S,11S,12S,13R)-6-cyclohexyl-11-hydroxy-9,13-dimethyl-16-oxo-5,7-dioxapentacyclo[10.8.0.02,9.04,8.013,18]icosa-14,17-dien-8-yl]-2-oxo-ethyl] 2-methylpropanoate

> <PUBCHEM_IUPAC_CAS_NAME>
2-methylpropanoic acid [2-[(1S,2S,4R,6R,8S,9S,11S,12S,13R)-6-cyclohexyl-11-hydroxy-9,13-dimethyl-16-oxo-5,7-dioxapentacyclo[10.8.0.02,9.04,8.013,18]eicosa-14,17-dien-8-yl]-2-oxoethyl] ester

> <PUBCHEM_IUPAC_NAME_MARKUP>
[2-[(1<I>S</I>,2<I>S</I>,4<I>R</I>,6<I>R</I>,8<I>S</I>,9<I>S</I>,11<I>S</I>,12<I>S</I>,13<I>R</I>)-6-cyclohexyl-11-hydroxy-9,13-dimethyl-16-oxo-5,7-dioxapentacyclo[10.8.0.0<SUP>2,9</SUP>.0<SUP>4,8</SUP>.0<SUP>13,18</SUP>]icosa-14,17-dien-8-yl]-2-oxoethyl] 2-methylpropanoate

> <PUBCHEM_IUPAC_NAME>
[2-[(1S,2S,4R,6R,8S,9S,11S,12S,13R)-6-cyclohexyl-11-hydroxy-9,13-dimethyl-16-oxo-5,7-dioxapentacyclo[10.8.0.02,9.04,8.013,18]icosa-14,17-dien-8-yl]-2-oxoethyl] 2-methylpropanoate

> <PUBCHEM_IUPAC_SYSTEMATIC_NAME>
[2-[(1S,2S,4R,6R,8S,9S,11S,12S,13R)-6-cyclohexyl-9,13-dimethyl-11-oxidanyl-16-oxidanylidene-5,7-dioxapentacyclo[10.8.0.02,9.04,8.013,18]icosa-14,17-dien-8-yl]-2-oxidanylidene-ethyl] 2-methylpropanoate

> <PUBCHEM_IUPAC_TRADITIONAL_NAME>
2-methylpropionic acid [2-[(1S,2S,4R,6R,8S,9S,11S,12S,13R)-6-cyclohexyl-11-hydroxy-16-keto-9,13-dimethyl-5,7-dioxapentacyclo[10.8.0.02,9.04,8.013,18]eicosa-14,17-dien-8-yl]-2-keto-ethyl] ester

> <PUBCHEM_IUPAC_INCHI>
InChI=1S/C32H44O7/c1-18(2)28(36)37-17-25(35)32-26(38-29(39-32)19-8-6-5-7-9-19)15-23-22-11-10-20-14-21(33)12-13-30(20,3)27(22)24(34)16-31(23,32)4/h12-14,18-19,22-24,26-27,29,34H,5-11,15-17H2,1-4H3/t22-,23-,24-,26+,27+,29+,30-,31-,32+/m0/s1

> <PUBCHEM_IUPAC_INCHIKEY>
LUKZNWIVRBCLON-GXOBDPJESA-N

> <PUBCHEM_XLOGP3_AA>
5.3

> <PUBCHEM_EXACT_MASS>
540.30870374

> <PUBCHEM_MOLECULAR_FORMULA>
C32H44O7

> <PUBCHEM_MOLECULAR_WEIGHT>
540.7

> <PUBCHEM_OPENEYE_CAN_SMILES>
CC(C)C(=O)OCC(=O)C12C(CC3C1(CC(C4C3CCC5=CC(=O)C=CC45C)O)C)OC(O2)C6CCCCC6

> <PUBCHEM_OPENEYE_ISO_SMILES>
CC(C)C(=O)OCC(=O)[C@@]12[C@@H](C[C@@H]3[C@@]1(C[C@@H]([C@H]4[C@H]3CCC5=CC(=O)C=C[C@]45C)O)C)O[C@H](O2)C6CCCCC6

> <PUBCHEM_CACTVS_TPSA>
99.1

> <PUBCHEM_MONOISOTOPIC_WEIGHT>
540.30870374

> <PUBCHEM_TOTAL_CHARGE>
0

> <PUBCHEM_HEAVY_ATOM_COUNT>
39

> <PUBCHEM_ATOM_DEF_STEREO_COUNT>
9

> <PUBCHEM_ATOM_UDEF_STEREO_COUNT>
0

> <PUBCHEM_BOND_DEF_STEREO_COUNT>
0

> <PUBCHEM_BOND_UDEF_STEREO_COUNT>
0

> <PUBCHEM_ISOTOPIC_ATOM_COUNT>
0

> <PUBCHEM_COMPONENT_COUNT>
1

> <PUBCHEM_CACTVS_TAUTO_COUNT>
6

> <PUBCHEM_COORDINATE_TYPE>
1
5
255

> <PUBCHEM_BONDANNOTATIONS>
10  41  5
11  21  5
12  42  6
13  43  5
17  24  5
20  54  5
16  3  5
8  19  5
9  40  6

$$$$
53472683
  -OEChem-03012215082D

 93 99  0     1  0  0  0  0  0999 V2000
   10.7282   -0.7274    0.0000 O   0  0  0  0  0  0  0  0  0  0  0  0
    9.8622   -1.2274    0.0000 O   0  0  0  0  0  0  0  0  0  0  0  0
    6.3981   -4.2274    0.0000 O   0  0  0  0  0  0  0  0  0  0  0  0
   13.3263    1.7726    0.0000 N   0  0  0  0  0  0  0  0  0  0  0  0
   15.9244    3.2726    0.0000 N   0  0  0  0  0  0  0  0  0  0  0  0
   11.5942    0.7726    0.0000 N   0  0  0  0  0  0  0  0  0  0  0  0
    8.1301   -1.2274    0.0000 N   0  0  0  0  0  0  0  0  0  0  0  0
    8.9962    0.2726    0.0000 N   0  0  0  0  0  0  0  0  0  0  0  0
    4.6660   -4.2274    0.0000 N   0  0  0  0  0  0  0  0  0  0  0  0
    6.5271    3.9396    0.0000 N   0  0  0  0  0  0  0  0  0  0  0  0
    6.9322    4.8474    0.0000 N   0  0  0  0  0  0  0  0  0  0  0  0
   14.1923    2.2726    0.0000 C   0  0  0  0  0  0  0  0  0  0  0  0
   14.1923    3.2726    0.0000 C   0  0  0  0  0  0  0  0  0  0  0  0
   15.0583    1.7726    0.0000 C   0  0  0  0  0  0  0  0  0  0  0  0
   13.3263    0.7726    0.0000 C   0  0  0  0  0  0  0  0  0  0  0  0
   12.4603    2.2726    0.0000 C   0  0  0  0  0  0  0  0  0  0  0  0
   15.0583    3.7726    0.0000 C   0  0  0  0  0  0  0  0  0  0  0  0
   15.9244    2.2726    0.0000 C   0  0  0  0  0  0  0  0  0  0  0  0
   12.4603    0.2726    0.0000 C   0  0  0  0  0  0  0  0  0  0  0  0
   11.5942    1.7726    0.0000 C   0  0  0  0  0  0  0  0  0  0  0  0
    6.3981   -2.2274    0.0000 C   0  0  0  0  0  0  0  0  0  0  0  0
   10.7282    0.2726    0.0000 C   0  0  0  0  0  0  0  0  0  0  0  0
    9.8622    0.7726    0.0000 C   0  0  1  0  0  0  0  0  0  0  0  0
   16.7904    3.7726    0.0000 C   0  0  0  0  0  0  0  0  0  0  0  0
    6.3981   -1.2274    0.0000 C   0  0  0  0  0  0  0  0  0  0  0  0
    7.2641   -2.7274    0.0000 C   0  0  0  0  0  0  0  0  0  0  0  0
    7.2641   -0.7274    0.0000 C   0  0  0  0  0  0  0  0  0  0  0  0
    8.1301   -2.2274    0.0000 C   0  0  0  0  0  0  0  0  0  0  0  0
    9.8622    1.7726    0.0000 C   0  0  0  0  0  0  0  0  0  0  0  0
    5.5321   -2.7274    0.0000 C   0  0  0  0  0  0  0  0  0  0  0  0
    8.9962   -0.7274    0.0000 C   0  0  0  0  0  0  0  0  0  0  0  0
    8.9962    2.2726    0.0000 C   0  0  0  0  0  0  0  0  0  0  0  0
    4.6660   -2.2274    0.0000 C   0  0  0  0  0  0  0  0  0  0  0  0
    5.5321   -3.7274    0.0000 C   0  0  0  0  0  0  0  0  0  0  0  0
    3.8000   -2.7274    0.0000 C   0  0  0  0  0  0  0  0  0  0  0  0
    8.1301    1.7726    0.0000 C   0  0  0  0  0  0  0  0  0  0  0  0
    3.8000   -3.7274    0.0000 C   0  0  0  0  0  0  0  0  0  0  0  0
    8.9962    3.2726    0.0000 C   0  0  0  0  0  0  0  0  0  0  0  0
    7.2641    2.2726    0.0000 C   0  0  0  0  0  0  0  0  0  0  0  0
    8.1301    3.7726    0.0000 C   0  0  0  0  0  0  0  0  0  0  0  0
    7.2641    3.2726    0.0000 C   0  0  0  0  0  0  0  0  0  0  0  0
    2.9061   -2.1928    0.0000 C   0  0  0  0  0  0  0  0  0  0  0  0
    2.9061   -4.2621    0.0000 C   0  0  0  0  0  0  0  0  0  0  0  0
    6.3981    1.7726    0.0000 C   0  0  0  0  0  0  0  0  0  0  0  0
    2.0000   -2.7066    0.0000 C   0  0  0  0  0  0  0  0  0  0  0  0
    7.9209    4.7444    0.0000 C   0  0  0  0  0  0  0  0  0  0  0  0
    2.0000   -3.7482    0.0000 C   0  0  0  0  0  0  0  0  0  0  0  0
   13.6554    2.5826    0.0000 H   0  0  0  0  0  0  0  0  0  0  0  0
   13.9803    3.8552    0.0000 H   0  0  0  0  0  0  0  0  0  0  0  0
   13.5817    3.1649    0.0000 H   0  0  0  0  0  0  0  0  0  0  0  0
   14.6598    1.2976    0.0000 H   0  0  0  0  0  0  0  0  0  0  0  0
   15.4569    1.2976    0.0000 H   0  0  0  0  0  0  0  0  0  0  0  0
   13.5383    0.1900    0.0000 H   0  0  0  0  0  0  0  0  0  0  0  0
   13.9369    0.8802    0.0000 H   0  0  0  0  0  0  0  0  0  0  0  0
   12.8588    2.7475    0.0000 H   0  0  0  0  0  0  0  0  0  0  0  0
   12.0617    2.7475    0.0000 H   0  0  0  0  0  0  0  0  0  0  0  0
   15.4569    4.2475    0.0000 H   0  0  0  0  0  0  0  0  0  0  0  0
   14.6598    4.2475    0.0000 H   0  0  0  0  0  0  0  0  0  0  0  0
   16.1364    1.6900    0.0000 H   0  0  0  0  0  0  0  0  0  0  0  0
   16.5349    2.3802    0.0000 H   0  0  0  0  0  0  0  0  0  0  0  0
   12.0617   -0.2024    0.0000 H   0  0  0  0  0  0  0  0  0  0  0  0
   12.8588   -0.2024    0.0000 H   0  0  0  0  0  0  0  0  0  0  0  0
   11.3822    2.3552    0.0000 H   0  0  0  0  0  0  0  0  0  0  0  0
   10.9837    1.6649    0.0000 H   0  0  0  0  0  0  0  0  0  0  0  0
    6.3981   -2.8474    0.0000 H   0  0  0  0  0  0  0  0  0  0  0  0
    9.3252    1.0826    0.0000 H   0  0  0  0  0  0  0  0  0  0  0  0
    6.1860   -0.6448    0.0000 H   0  0  0  0  0  0  0  0  0  0  0  0
    5.7875   -1.3351    0.0000 H   0  0  0  0  0  0  0  0  0  0  0  0
    6.8656   -3.2024    0.0000 H   0  0  0  0  0  0  0  0  0  0  0  0
    7.6626   -3.2024    0.0000 H   0  0  0  0  0  0  0  0  0  0  0  0
   17.1004    3.2356    0.0000 H   0  0  0  0  0  0  0  0  0  0  0  0
   17.3273    4.0826    0.0000 H   0  0  0  0  0  0  0  0  0  0  0  0
   16.4804    4.3095    0.0000 H   0  0  0  0  0  0  0  0  0  0  0  0
    7.6626   -0.2525    0.0000 H   0  0  0  0  0  0  0  0  0  0  0  0
    6.8656   -0.2525    0.0000 H   0  0  0  0  0  0  0  0  0  0  0  0
    8.3422   -2.8100    0.0000 H   0  0  0  0  0  0  0  0  0  0  0  0
    8.7407   -2.1198    0.0000 H   0  0  0  0  0  0  0  0  0  0  0  0
   10.4728    1.6649    0.0000 H   0  0  0  0  0  0  0  0  0  0  0  0
   10.0742    2.3552    0.0000 H   0  0  0  0  0  0  0  0  0  0  0  0
    8.4592    0.5826    0.0000 H   0  0  0  0  0  0  0  0  0  0  0  0
    4.6660   -1.6074    0.0000 H   0  0  0  0  0  0  0  0  0  0  0  0
    4.6660   -4.8474    0.0000 H   0  0  0  0  0  0  0  0  0  0  0  0
    8.1301    1.1526    0.0000 H   0  0  0  0  0  0  0  0  0  0  0  0
    9.5331    3.5826    0.0000 H   0  0  0  0  0  0  0  0  0  0  0  0
    2.9132   -1.5728    0.0000 H   0  0  0  0  0  0  0  0  0  0  0  0
    2.9132   -4.8820    0.0000 H   0  0  0  0  0  0  0  0  0  0  0  0
    6.0881    2.3095    0.0000 H   0  0  0  0  0  0  0  0  0  0  0  0
    5.8612    1.4626    0.0000 H   0  0  0  0  0  0  0  0  0  0  0  0
    6.7081    1.2356    0.0000 H   0  0  0  0  0  0  0  0  0  0  0  0
    1.4643   -2.3946    0.0000 H   0  0  0  0  0  0  0  0  0  0  0  0
    8.3350    5.2058    0.0000 H   0  0  0  0  0  0  0  0  0  0  0  0
    1.4643   -4.0603    0.0000 H   0  0  0  0  0  0  0  0  0  0  0  0
    5.9204    3.8118    0.0000 H   0  0  0  0  0  0  0  0  0  0  0  0
  1 22  2  0  0  0  0
  2 31  2  0  0  0  0
  3 34  2  0  0  0  0
  4 12  1  0  0  0  0
  4 15  1  0  0  0  0
  4 16  1  0  0  0  0
  5 17  1  0  0  0  0
  5 18  1  0  0  0  0
  5 24  1  0  0  0  0
  6 19  1  0  0  0  0
  6 20  1  0  0  0  0
  6 22  1  0  0  0  0
  7 27  1  0  0  0  0
  7 28  1  0  0  0  0
  7 31  1  0  0  0  0
 23  8  1  6  0  0  0
  8 31  1  0  0  0  0
  8 80  1  0  0  0  0
  9 34  1  0  0  0  0
  9 37  1  0  0  0  0
  9 82  1  0  0  0  0
 10 11  1  0  0  0  0
 10 41  1  0  0  0  0
 10 93  1  0  0  0  0
 11 46  2  0  0  0  0
 12 13  1  0  0  0  0
 12 14  1  0  0  0  0
 12 48  1  0  0  0  0
 13 17  1  0  0  0  0
 13 49  1  0  0  0  0
 13 50  1  0  0  0  0
 14 18  1  0  0  0  0
 14 51  1  0  0  0  0
 14 52  1  0  0  0  0
 15 19  1  0  0  0  0
 15 53  1  0  0  0  0
 15 54  1  0  0  0  0
 16 20  1  0  0  0  0
 16 55  1  0  0  0  0
 16 56  1  0  0  0  0
 17 57  1  0  0  0  0
 17 58  1  0  0  0  0
 18 59  1  0  0  0  0
 18 60  1  0  0  0  0
 19 61  1  0  0  0  0
 19 62  1  0  0  0  0
 20 63  1  0  0  0  0
 20 64  1  0  0  0  0
 21 25  1  0  0  0  0
 21 26  1  0  0  0  0
 21 30  1  0  0  0  0
 21 65  1  0  0  0  0
 22 23  1  0  0  0  0
 23 29  1  0  0  0  0
 23 66  1  0  0  0  0
 24 71  1  0  0  0  0
 24 72  1  0  0  0  0
 24 73  1  0  0  0  0
 25 27  1  0  0  0  0
 25 67  1  0  0  0  0
 25 68  1  0  0  0  0
 26 28  1  0  0  0  0
 26 69  1  0  0  0  0
 26 70  1  0  0  0  0
 27 74  1  0  0  0  0
 27 75  1  0  0  0  0
 28 76  1  0  0  0  0
 28 77  1  0  0  0  0
 29 32  1  0  0  0  0
 29 78  1  0  0  0  0
 29 79  1  0  0  0  0
 30 33  2  0  0  0  0
 30 34  1  0  0  0  0
 32 36  1  0  0  0  0
 32 38  2  0  0  0  0
 33 35  1  0  0  0  0
 33 81  1  0  0  0  0
 35 37  1  0  0  0  0
 35 42  2  0  0  0  0
 36 39  2  0  0  0  0
 36 83  1  0  0  0  0
 37 43  2  0  0  0  0
 38 40  1  0  0  0  0
 38 84  1  0  0  0  0
 39 41  1  0  0  0  0
 39 44  1  0  0  0  0
 40 41  2  0  0  0  0
 40 46  1  0  0  0  0
 42 45  1  0  0  0  0
 42 85  1  0  0  0  0
 43 47  1  0  0  0  0
 43 86  1  0  0  0  0
 44 87  1  0  0  0  0
 44 88  1  0  0  0  0
 44 89  1  0  0  0  0
 45 47  2  0  0  0  0
 45 90  1  0  0  0  0
 46 91  1  0  0  0  0
 47 92  1  0  0  0  0
M  END
> <PUBCHEM_COMPOUND_CID>
53472683

> <PUBCHEM_COMPOUND_CANONICALIZED>
1

> <PUBCHEM_CACTVS_COMPLEXITY>
1160

> <PUBCHEM_CACTVS_HBOND_ACCEPTOR>
6

> <PUBCHEM_CACTVS_HBOND_DONOR>
3

> <PUBCHEM_CACTVS_ROTATABLE_BOND>
6

> <PUBCHEM_CACTVS_SUBSKEYS>
AAADcfB/8AAAAAAAAAAAAAAAAAAAAWAAAAA8eLECAAAAAFiB9AAAHgAYAAAADSjBngQ/wPPjAACqAzV3UACSBAAhggAYuaGoZNiIYLLA0fGUpAhongLIyYcYicCOCAACAAACAAAQAAQAAAQAAAAAAAAAAA==

> <PUBCHEM_IUPAC_OPENEYE_NAME>
N-[(1R)-1-[(7-methyl-1H-indazol-5-yl)methyl]-2-[4-(1-methyl-4-piperidyl)piperazin-1-yl]-2-oxo-ethyl]-4-(2-oxo-1H-quinolin-3-yl)piperidine-1-carboxamide

> <PUBCHEM_IUPAC_CAS_NAME>
N-[(2R)-3-(7-methyl-1H-indazol-5-yl)-1-[4-(1-methyl-4-piperidinyl)-1-piperazinyl]-1-oxopropan-2-yl]-4-(2-oxo-1H-quinolin-3-yl)-1-piperidinecarboxamide

> <PUBCHEM_IUPAC_NAME_MARKUP>
<I>N</I>-[(2<I>R</I>)-3-(7-methyl-1<I>H</I>-indazol-5-yl)-1-[4-(1-methylpiperidin-4-yl)piperazin-1-yl]-1-oxopropan-2-yl]-4-(2-oxo-1<I>H</I>-quinolin-3-yl)piperidine-1-carboxamide

> <PUBCHEM_IUPAC_NAME>
N-[(2R)-3-(7-methyl-1H-indazol-5-yl)-1-[4-(1-methylpiperidin-4-yl)piperazin-1-yl]-1-oxopropan-2-yl]-4-(2-oxo-1H-quinolin-3-yl)piperidine-1-carboxamide

> <PUBCHEM_IUPAC_SYSTEMATIC_NAME>
N-[(2R)-3-(7-methyl-1H-indazol-5-yl)-1-[4-(1-methylpiperidin-4-yl)piperazin-1-yl]-1-oxidanylidene-propan-2-yl]-4-(2-oxidanylidene-1H-quinolin-3-yl)piperidine-1-carboxamide

> <PUBCHEM_IUPAC_TRADITIONAL_NAME>
N-[(1R)-2-keto-1-[(7-methyl-1H-indazol-5-yl)methyl]-2-[4-(1-methyl-4-piperidyl)piperazino]ethyl]-4-(2-keto-1H-quinolin-3-yl)piperidine-1-carboxamide

> <PUBCHEM_IUPAC_INCHI>
InChI=1S/C36H46N8O3/c1-24-19-25(20-28-23-37-40-33(24)28)21-32(35(46)43-17-15-42(16-18-43)29-9-11-41(2)12-10-29)39-36(47)44-13-7-26(8-14-44)30-22-27-5-3-4-6-31(27)38-34(30)45/h3-6,19-20,22-23,26,29,32H,7-18,21H2,1-2H3,(H,37,40)(H,38,45)(H,39,47)/t32-/m1/s1

> <PUBCHEM_IUPAC_INCHIKEY>
JJVAPHYEOZSKJZ-JGCGQSQUSA-N

> <PUBCHEM_XLOGP3_AA>
3.1

> <PUBCHEM_EXACT_MASS>
638.36928736

> <PUBCHEM_MOLECULAR_FORMULA>
C36H46N8O3

> <PUBCHEM_MOLECULAR_WEIGHT>
638.8

> <PUBCHEM_OPENEYE_CAN_SMILES>
CC1=CC(=CC2=C1NN=C2)CC(C(=O)N3CCN(CC3)C4CCN(CC4)C)NC(=O)N5CCC(CC5)C6=CC7=CC=CC=C7NC6=O

> <PUBCHEM_OPENEYE_ISO_SMILES>
CC1=CC(=CC2=C1NN=C2)C[C@H](C(=O)N3CCN(CC3)C4CCN(CC4)C)NC(=O)N5CCC(CC5)C6=CC7=CC=CC=C7NC6=O

> <PUBCHEM_CACTVS_TPSA>
117

> <PUBCHEM_MONOISOTOPIC_WEIGHT>
638.36928736

> <PUBCHEM_TOTAL_CHARGE>
0

> <PUBCHEM_HEAVY_ATOM_COUNT>
47

> <PUBCHEM_ATOM_DEF_STEREO_COUNT>
1

> <PUBCHEM_ATOM_UDEF_STEREO_COUNT>
0

> <PUBCHEM_BOND_DEF_STEREO_COUNT>
0

> <PUBCHEM_BOND_UDEF_STEREO_COUNT>
0

> <PUBCHEM_ISOTOPIC_ATOM_COUNT>
0

> <PUBCHEM_COMPONENT_COUNT>
1

> <PUBCHEM_CACTVS_TAUTO_COUNT>
-1

> <PUBCHEM_COORDINATE_TYPE>
1
5
255

> <PUBCHEM_BONDANNOTATIONS>
10  11  8
10  41  8
11  46  8
30  33  8
30  34  8
32  36  8
32  38  8
33  35  8
35  37  8
35  42  8
36  39  8
37  43  8
38  40  8
39  41  8
40  41  8
40  46  8
42  45  8
43  47  8
45  47  8
23  8  6
9  34  8
9  37  8

$$$$
3672
  -OEChem-03012215082D

 33 33  0     1  0  0  0  0  0999 V2000
    4.5981    3.3450    0.0000 O   0  0  0  0  0  0  0  0  0  0  0  0
    5.4641    1.8450    0.0000 O   0  0  0  0  0  0  0  0  0  0  0  0
    2.8660   -2.6550    0.0000 C   0  0  0  0  0  0  0  0  0  0  0  0
    3.7320   -2.1550    0.0000 C   0  0  0  0  0  0  0  0  0  0  0  0
    3.7320   -1.1550    0.0000 C   0  0  0  0  0  0  0  0  0  0  0  0
    3.7320    0.8450    0.0000 C   0  0  0  0  0  0  0  0  0  0  0  0
    3.7320    1.8450    0.0000 C   0  0  3  0  0  0  0  0  0  0  0  0
    2.8660   -3.6550    0.0000 C   0  0  0  0  0  0  0  0  0  0  0  0
    2.0000   -2.1550    0.0000 C   0  0  0  0  0  0  0  0  0  0  0  0
    4.5981   -0.6550    0.0000 C   0  0  0  0  0  0  0  0  0  0  0  0
    2.8660   -0.6550    0.0000 C   0  0  0  0  0  0  0  0  0  0  0  0
    4.5981    0.3450    0.0000 C   0  0  0  0  0  0  0  0  0  0  0  0
    2.8660    0.3450    0.0000 C   0  0  0  0  0  0  0  0  0  0  0  0
    2.8660    2.3450    0.0000 C   0  0  0  0  0  0  0  0  0  0  0  0
    4.5981    2.3450    0.0000 C   0  0  0  0  0  0  0  0  0  0  0  0
    2.8660   -2.0350    0.0000 H   0  0  0  0  0  0  0  0  0  0  0  0
    3.9441   -2.7376    0.0000 H   0  0  0  0  0  0  0  0  0  0  0  0
    4.3426   -2.0473    0.0000 H   0  0  0  0  0  0  0  0  0  0  0  0
    3.7320    2.4650    0.0000 H   0  0  0  0  0  0  0  0  0  0  0  0
    2.2460   -3.6550    0.0000 H   0  0  0  0  0  0  0  0  0  0  0  0
    2.8660   -4.2750    0.0000 H   0  0  0  0  0  0  0  0  0  0  0  0
    3.4860   -3.6550    0.0000 H   0  0  0  0  0  0  0  0  0  0  0  0
    2.3100   -1.6181    0.0000 H   0  0  0  0  0  0  0  0  0  0  0  0
    1.4631   -1.8450    0.0000 H   0  0  0  0  0  0  0  0  0  0  0  0
    1.6900   -2.6919    0.0000 H   0  0  0  0  0  0  0  0  0  0  0  0
    5.1350   -0.9650    0.0000 H   0  0  0  0  0  0  0  0  0  0  0  0
    2.3291   -0.9650    0.0000 H   0  0  0  0  0  0  0  0  0  0  0  0
    5.1350    0.6550    0.0000 H   0  0  0  0  0  0  0  0  0  0  0  0
    2.3291    0.6550    0.0000 H   0  0  0  0  0  0  0  0  0  0  0  0
    3.1760    2.8819    0.0000 H   0  0  0  0  0  0  0  0  0  0  0  0
    2.3291    2.6550    0.0000 H   0  0  0  0  0  0  0  0  0  0  0  0
    2.5560    1.8081    0.0000 H   0  0  0  0  0  0  0  0  0  0  0  0
    5.1350    3.6550    0.0000 H   0  0  0  0  0  0  0  0  0  0  0  0
  1 15  1  0  0  0  0
  1 33  1  0  0  0  0
  2 15  2  0  0  0  0
  3  4  1  0  0  0  0
  3  8  1  0  0  0  0
  3  9  1  0  0  0  0
  3 16  1  0  0  0  0
  4  5  1  0  0  0  0
  4 17  1  0  0  0  0
  4 18  1  0  0  0  0
  5 10  2  0  0  0  0
  5 11  1  0  0  0  0
  6  7  1  0  0  0  0
  6 12  2  0  0  0  0
  6 13  1  0  0  0  0
  7 14  1  0  0  0  0
  7 15  1  0  0  0  0
  7 19  1  0  0  0  0
  8 20  1  0  0  0  0
  8 21  1  0  0  0  0
  8 22  1  0  0  0  0
  9 23  1  0  0  0  0
  9 24  1  0  0  0  0
  9 25  1  0  0  0  0
 10 12  1  0  0  0  0
 10 26  1  0  0  0  0
 11 13  2  0  0  0  0
 11 27  1  0  0  0  0
 12 28  1  0  0  0  0
 13 29  1  0  0  0  0
 14 30  1  0  0  0  0
 14 31  1  0  0  0  0
 14 32  1  0  0  0  0
M  END
> <PUBCHEM_COMPOUND_CID>
3672

> <PUBCHEM_COMPOUND_CANONICALIZED>
1

> <PUBCHEM_CACTVS_COMPLEXITY>
203

> <PUBCHEM_CACTVS_HBOND_ACCEPTOR>
2

> <PUBCHEM_CACTVS_HBOND_DONOR>
1

> <PUBCHEM_CACTVS_ROTATABLE_BOND>
4

> <PUBCHEM_CACTVS_SUBSKEYS>
AAADceBwMAAAAAAAAAAAAAAAAAAAAAAAAAAwAAAAAAAAAAABAAAAGgAACAAADQCAmAAyCIAAAgCIAiDSCAACAAAgAAAIiAEAAIgIIDKAFRCAYAAkwAEIiAeIyOCOwAAAAAAAAACAAAAAAAAAAAAAAAAAAA==

> <PUBCHEM_IUPAC_OPENEYE_NAME>
2-(4-isobutylphenyl)propanoic acid

> <PUBCHEM_IUPAC_CAS_NAME>
2-[4-(2-methylpropyl)phenyl]propanoic acid

> <PUBCHEM_IUPAC_NAME_MARKUP>
2-[4-(2-methylpropyl)phenyl]propanoic acid

> <PUBCHEM_IUPAC_NAME>
2-[4-(2-methylpropyl)phenyl]propanoic acid

> <PUBCHEM_IUPAC_SYSTEMATIC_NAME>
2-[4-(2-methylpropyl)phenyl]propanoic acid

> <PUBCHEM_IUPAC_TRADITIONAL_NAME>
2-(4-isobutylphenyl)propionic acid

> <PUBCHEM_IUPAC_INCHI>
InChI=1S/C13H18O2/c1-9(2)8-11-4-6-12(7-5-11)10(3)13(14)15/h4-7,9-10H,8H2,1-3H3,(H,14,15)

> <PUBCHEM_IUPAC_INCHIKEY>
HEFNNWSXXWATRW-UHFFFAOYSA-N

> <PUBCHEM_XLOGP3>
3.5

> <PUBCHEM_EXACT_MASS>
206.130679813

> <PUBCHEM_MOLECULAR_FORMULA>
C13H18O2

> <PUBCHEM_MOLECULAR_WEIGHT>
206.28

> <PUBCHEM_OPENEYE_CAN_SMILES>
CC(C)CC1=CC=C(C=C1)C(C)C(=O)O

> <PUBCHEM_OPENEYE_ISO_SMILES>
CC(C)CC1=CC=C(C=C1)C(C)C(=O)O

> <PUBCHEM_CACTVS_TPSA>
37.3

> <PUBCHEM_MONOISOTOPIC_WEIGHT>
206.130679813

> <PUBCHEM_TOTAL_CHARGE>
0

> <PUBCHEM_HEAVY_ATOM_COUNT>
15

> <PUBCHEM_ATOM_DEF_STEREO_COUNT>
0

> <PUBCHEM_ATOM_UDEF_STEREO_COUNT>
1

> <PUBCHEM_BOND_DEF_STEREO_COUNT>
0

> <PUBCHEM_BOND_UDEF_STEREO_COUNT>
0

> <PUBCHEM_ISOTOPIC_ATOM_COUNT>
0

> <PUBCHEM_COMPONENT_COUNT>
1

> <PUBCHEM_CACTVS_TAUTO_COUNT>
13

> <PUBCHEM_COORDINATE_TYPE>
1
5
255

> <PUBCHEM_BONDANNOTATIONS>
10  12  8
11  13  8
5  10  8
5  11  8
6  12  8
6  13  8
7  14  3

$$$$
2132
  -OEChem-03012215082D

 36 37  0     0  0  0  0  0  0999 V2000
   10.3312    0.7500    0.0000 Br   0  0  0  0  0  0  0  0  0  0  0  0
    8.5991   -2.2500    0.0000 Br   0  0  0  0  0  0  0  0  0  0  0  0
    2.5369    2.2500    0.0000 O    0  0  0  0  0  0  0  0  0  0  0  0
    6.0010    0.2500    0.0000 N    0  0  0  0  0  0  0  0  0  0  0  0
    8.5991    1.7500    0.0000 N    0  0  0  0  0  0  0  0  0  0  0  0
    5.1350    0.7500    0.0000 C    0  0  0  0  0  0  0  0  0  0  0  0
    5.1350    1.7500    0.0000 C    0  0  0  0  0  0  0  0  0  0  0  0
    4.2690    0.2500    0.0000 C    0  0  0  0  0  0  0  0  0  0  0  0
    4.2690    2.2500    0.0000 C    0  0  0  0  0  0  0  0  0  0  0  0
    3.4030    0.7500    0.0000 C    0  0  0  0  0  0  0  0  0  0  0  0
    3.4030    1.7500    0.0000 C    0  0  0  0  0  0  0  0  0  0  0  0
    6.8671    0.7500    0.0000 C    0  0  0  0  0  0  0  0  0  0  0  0
    7.7331    0.2500    0.0000 C    0  0  0  0  0  0  0  0  0  0  0  0
    8.5991    0.7500    0.0000 C    0  0  0  0  0  0  0  0  0  0  0  0
    7.7331   -0.7500    0.0000 C    0  0  0  0  0  0  0  0  0  0  0  0
    9.4651    0.2500    0.0000 C    0  0  0  0  0  0  0  0  0  0  0  0
    8.5991   -1.2500    0.0000 C    0  0  0  0  0  0  0  0  0  0  0  0
    9.4651   -0.7500    0.0000 C    0  0  0  0  0  0  0  0  0  0  0  0
    5.1350    0.1300    0.0000 H    0  0  0  0  0  0  0  0  0  0  0  0
    5.7456    1.6423    0.0000 H    0  0  0  0  0  0  0  0  0  0  0  0
    5.3471    2.3326    0.0000 H    0  0  0  0  0  0  0  0  0  0  0  0
    3.8705   -0.2249    0.0000 H    0  0  0  0  0  0  0  0  0  0  0  0
    4.6675   -0.2249    0.0000 H    0  0  0  0  0  0  0  0  0  0  0  0
    4.6675    2.7250    0.0000 H    0  0  0  0  0  0  0  0  0  0  0  0
    3.8705    2.7250    0.0000 H    0  0  0  0  0  0  0  0  0  0  0  0
    2.7924    0.8577    0.0000 H    0  0  0  0  0  0  0  0  0  0  0  0
    3.1909    0.1674    0.0000 H    0  0  0  0  0  0  0  0  0  0  0  0
    3.4030    2.3700    0.0000 H    0  0  0  0  0  0  0  0  0  0  0  0
    6.0010   -0.3700    0.0000 H    0  0  0  0  0  0  0  0  0  0  0  0
    7.2656    1.2250    0.0000 H    0  0  0  0  0  0  0  0  0  0  0  0
    6.4685    1.2250    0.0000 H    0  0  0  0  0  0  0  0  0  0  0  0
    2.0000    1.9400    0.0000 H    0  0  0  0  0  0  0  0  0  0  0  0
    7.1962   -1.0600    0.0000 H    0  0  0  0  0  0  0  0  0  0  0  0
   10.0021   -1.0600    0.0000 H    0  0  0  0  0  0  0  0  0  0  0  0
    9.1360    2.0600    0.0000 H    0  0  0  0  0  0  0  0  0  0  0  0
    8.0622    2.0600    0.0000 H    0  0  0  0  0  0  0  0  0  0  0  0
  1 16  1  0  0  0  0
  2 17  1  0  0  0  0
  3 11  1  0  0  0  0
  3 32  1  0  0  0  0
  4  6  1  0  0  0  0
  4 12  1  0  0  0  0
  4 29  1  0  0  0  0
  5 14  1  0  0  0  0
  5 35  1  0  0  0  0
  5 36  1  0  0  0  0
  6  7  1  0  0  0  0
  6  8  1  0  0  0  0
  6 19  1  0  0  0  0
  7  9  1  0  0  0  0
  7 20  1  0  0  0  0
  7 21  1  0  0  0  0
  8 10  1  0  0  0  0
  8 22  1  0  0  0  0
  8 23  1  0  0  0  0
  9 11  1  0  0  0  0
  9 24  1  0  0  0  0
  9 25  1  0  0  0  0
 10 11  1  0  0  0  0
 10 26  1  0  0  0  0
 10 27  1  0  0  0  0
 11 28  1  0  0  0  0
 12 13  1  0  0  0  0
 12 30  1  0  0  0  0
 12 31  1  0  0  0  0
 13 14  2  0  0  0  0
 13 15  1  0  0  0  0
 14 16  1  0  0  0  0
 15 17  2  0  0  0  0
 15 33  1  0  0  0  0
 16 18  2  0  0  0  0
 17 18  1  0  0  0  0
 18 34  1  0  0  0  0
M  END
> <PUBCHEM_COMPOUND_CID>
2132

> <PUBCHEM_COMPOUND_CANONICALIZED>
1

> <PUBCHEM_CACTVS_COMPLEXITY>
259

> <PUBCHEM_CACTVS_HBOND_ACCEPTOR>
3

> <PUBCHEM_CACTVS_HBOND_DONOR>
3

> <PUBCHEM_CACTVS_ROTATABLE_BOND>
3

> <PUBCHEM_CACTVS_SUBSKEYS>
AAADceBzIAAAGAAAAAAAAAAAAAAAAAAAAAAwYAAAAAAAAAABAAAAHgBQCAABrDzhmAYwwILAAgCAAiRCQACCAAAgAAQAiIAIRKgIMCKA0ZGEYAhkkACIyhewwAAOAAAgEAAiAAgAgEAgAEQAEAAAAAAAAA==

> <PUBCHEM_IUPAC_OPENEYE_NAME>
4-[(2-amino-3,5-dibromo-phenyl)methylamino]cyclohexanol

> <PUBCHEM_IUPAC_CAS_NAME>
4-[(2-amino-3,5-dibromophenyl)methylamino]-1-cyclohexanol

> <PUBCHEM_IUPAC_NAME_MARKUP>
4-[(2-amino-3,5-dibromophenyl)methylamino]cyclohexan-1-ol

> <PUBCHEM_IUPAC_NAME>
4-[(2-amino-3,5-dibromophenyl)methylamino]cyclohexan-1-ol

> <PUBCHEM_IUPAC_SYSTEMATIC_NAME>
4-[[2-azanyl-3,5-bis(bromanyl)phenyl]methylamino]cyclohexan-1-ol

> <PUBCHEM_IUPAC_TRADITIONAL_NAME>
4-[(2-amino-3,5-dibromo-benzyl)amino]cyclohexanol

> <PUBCHEM_IUPAC_INCHI>
InChI=1S/C13H18Br2N2O/c14-9-5-8(13(16)12(15)6-9)7-17-10-1-3-11(18)4-2-10/h5-6,10-11,17-18H,1-4,7,16H2

> <PUBCHEM_IUPAC_INCHIKEY>
JBDGDEWWOUBZPM-UHFFFAOYSA-N

> <PUBCHEM_XLOGP3_AA>
2.6

> <PUBCHEM_EXACT_MASS>
377.97654

> <PUBCHEM_MOLECULAR_FORMULA>
C13H18Br2N2O

> <PUBCHEM_MOLECULAR_WEIGHT>
378.10

> <PUBCHEM_OPENEYE_CAN_SMILES>
C1CC(CCC1NCC2=C(C(=CC(=C2)Br)Br)N)O

> <PUBCHEM_OPENEYE_ISO_SMILES>
C1CC(CCC1NCC2=C(C(=CC(=C2)Br)Br)N)O

> <PUBCHEM_CACTVS_TPSA>
58.3

> <PUBCHEM_MONOISOTOPIC_WEIGHT>
375.97859

> <PUBCHEM_TOTAL_CHARGE>
0

> <PUBCHEM_HEAVY_ATOM_COUNT>
18

> <PUBCHEM_ATOM_DEF_STEREO_COUNT>
0

> <PUBCHEM_ATOM_UDEF_STEREO_COUNT>
0

> <PUBCHEM_BOND_DEF_STEREO_COUNT>
0

> <PUBCHEM_BOND_UDEF_STEREO_COUNT>
0

> <PUBCHEM_ISOTOPIC_ATOM_COUNT>
0

> <PUBCHEM_COMPONENT_COUNT>
1

> <PUBCHEM_CACTVS_TAUTO_COUNT>
-1

> <PUBCHEM_COORDINATE_TYPE>
1
5
255

> <PUBCHEM_BONDANNOTATIONS>
13  14  8
13  15  8
14  16  8
15  17  8
16  18  8
17  18  8

$$$$
2536
  -OEChem-03012215082D

 51 52  0     0  0  0  0  0  0999 V2000
    6.0010    4.4050    0.0000 O   0  0  0  0  0  0  0  0  0  0  0  0
    5.1350   -1.0950    0.0000 O   0  0  0  0  0  0  0  0  0  0  0  0
    6.8671    2.9050    0.0000 O   0  0  0  0  0  0  0  0  0  0  0  0
    6.0010    6.4050    0.0000 O   0  0  0  0  0  0  0  0  0  0  0  0
    3.4030   -1.0950    0.0000 O   0  0  0  0  0  0  0  0  0  0  0  0
    7.7331    6.4050    0.0000 N   0  0  0  0  0  0  0  0  0  0  0  0
    4.2690   -5.5950    0.0000 N   0  0  0  0  0  0  0  0  0  0  0  0
    3.4030   -7.0950    0.0000 N   0  0  0  0  0  0  0  0  0  0  0  0
    2.5369   -5.5950    0.0000 N   0  0  0  0  0  0  0  0  0  0  0  0
    5.1350    1.9050    0.0000 C   0  0  0  0  0  0  0  0  0  0  0  0
    5.1350    2.9050    0.0000 C   0  0  0  0  0  0  0  0  0  0  0  0
    4.2690    1.4050    0.0000 C   0  0  0  0  0  0  0  0  0  0  0  0
    6.0010    1.4050    0.0000 C   0  0  0  0  0  0  0  0  0  0  0  0
    5.1350   -0.0950    0.0000 C   0  0  0  0  0  0  0  0  0  0  0  0
    4.2690    0.4050    0.0000 C   0  0  0  0  0  0  0  0  0  0  0  0
    6.0010    0.4050    0.0000 C   0  0  0  0  0  0  0  0  0  0  0  0
    6.0010    3.4050    0.0000 C   0  0  0  0  0  0  0  0  0  0  0  0
    6.8671    4.9050    0.0000 C   0  0  0  0  0  0  0  0  0  0  0  0
    4.2690   -2.5950    0.0000 C   0  0  0  0  0  0  0  0  0  0  0  0
    6.8671    5.9050    0.0000 C   0  0  0  0  0  0  0  0  0  0  0  0
    4.2690   -1.5950    0.0000 C   0  0  0  0  0  0  0  0  0  0  0  0
    5.1350   -3.0950    0.0000 C   0  0  0  0  0  0  0  0  0  0  0  0
    3.4030   -3.0950    0.0000 C   0  0  0  0  0  0  0  0  0  0  0  0
    4.2690   -4.5950    0.0000 C   0  0  0  0  0  0  0  0  0  0  0  0
    5.1350   -4.0950    0.0000 C   0  0  0  0  0  0  0  0  0  0  0  0
    3.4030   -4.0950    0.0000 C   0  0  0  0  0  0  0  0  0  0  0  0
    7.7331    7.4050    0.0000 C   0  0  0  0  0  0  0  0  0  0  0  0
    8.5991    5.9050    0.0000 C   0  0  0  0  0  0  0  0  0  0  0  0
    3.4030   -6.0950    0.0000 C   0  0  0  0  0  0  0  0  0  0  0  0
    4.9230    3.4876    0.0000 H   0  0  0  0  0  0  0  0  0  0  0  0
    4.5244    2.7973    0.0000 H   0  0  0  0  0  0  0  0  0  0  0  0
    3.7320    1.7150    0.0000 H   0  0  0  0  0  0  0  0  0  0  0  0
    6.5380    1.7150    0.0000 H   0  0  0  0  0  0  0  0  0  0  0  0
    3.7320    0.0950    0.0000 H   0  0  0  0  0  0  0  0  0  0  0  0
    6.5380    0.0950    0.0000 H   0  0  0  0  0  0  0  0  0  0  0  0
    7.0791    4.3224    0.0000 H   0  0  0  0  0  0  0  0  0  0  0  0
    7.4776    5.0127    0.0000 H   0  0  0  0  0  0  0  0  0  0  0  0
    5.6720   -2.7850    0.0000 H   0  0  0  0  0  0  0  0  0  0  0  0
    2.8660   -2.7850    0.0000 H   0  0  0  0  0  0  0  0  0  0  0  0
    5.6720   -4.4050    0.0000 H   0  0  0  0  0  0  0  0  0  0  0  0
    2.8660   -4.4050    0.0000 H   0  0  0  0  0  0  0  0  0  0  0  0
    8.3531    7.4050    0.0000 H   0  0  0  0  0  0  0  0  0  0  0  0
    7.7331    8.0250    0.0000 H   0  0  0  0  0  0  0  0  0  0  0  0
    7.1131    7.4050    0.0000 H   0  0  0  0  0  0  0  0  0  0  0  0
    8.2891    5.3681    0.0000 H   0  0  0  0  0  0  0  0  0  0  0  0
    9.1360    5.5950    0.0000 H   0  0  0  0  0  0  0  0  0  0  0  0
    8.9091    6.4419    0.0000 H   0  0  0  0  0  0  0  0  0  0  0  0
    2.8660   -7.4050    0.0000 H   0  0  0  0  0  0  0  0  0  0  0  0
    3.9399   -7.4050    0.0000 H   0  0  0  0  0  0  0  0  0  0  0  0
    2.0000   -5.9050    0.0000 H   0  0  0  0  0  0  0  0  0  0  0  0
    2.5369   -4.9750    0.0000 H   0  0  0  0  0  0  0  0  0  0  0  0
  1 17  1  0  0  0  0
  1 18  1  0  0  0  0
  2 14  1  0  0  0  0
  2 21  1  0  0  0  0
  3 17  2  0  0  0  0
  4 20  2  0  0  0  0
  5 21  2  0  0  0  0
  6 20  1  0  0  0  0
  6 27  1  0  0  0  0
  6 28  1  0  0  0  0
  7 24  1  0  0  0  0
  7 29  2  0  0  0  0
  8 29  1  0  0  0  0
  8 48  1  0  0  0  0
  8 49  1  0  0  0  0
  9 29  1  0  0  0  0
  9 50  1  0  0  0  0
  9 51  1  0  0  0  0
 10 11  1  0  0  0  0
 10 12  2  0  0  0  0
 10 13  1  0  0  0  0
 11 17  1  0  0  0  0
 11 30  1  0  0  0  0
 11 31  1  0  0  0  0
 12 15  1  0  0  0  0
 12 32  1  0  0  0  0
 13 16  2  0  0  0  0
 13 33  1  0  0  0  0
 14 15  2  0  0  0  0
 14 16  1  0  0  0  0
 15 34  1  0  0  0  0
 16 35  1  0  0  0  0
 18 20  1  0  0  0  0
 18 36  1  0  0  0  0
 18 37  1  0  0  0  0
 19 21  1  0  0  0  0
 19 22  2  0  0  0  0
 19 23  1  0  0  0  0
 22 25  1  0  0  0  0
 22 38  1  0  0  0  0
 23 26  2  0  0  0  0
 23 39  1  0  0  0  0
 24 25  2  0  0  0  0
 24 26  1  0  0  0  0
 25 40  1  0  0  0  0
 26 41  1  0  0  0  0
 27 42  1  0  0  0  0
 27 43  1  0  0  0  0
 27 44  1  0  0  0  0
 28 45  1  0  0  0  0
 28 46  1  0  0  0  0
 28 47  1  0  0  0  0
M  END
> <PUBCHEM_COMPOUND_CID>
2536

> <PUBCHEM_COMPOUND_CANONICALIZED>
1

> <PUBCHEM_CACTVS_COMPLEXITY>
602

> <PUBCHEM_CACTVS_HBOND_ACCEPTOR>
6

> <PUBCHEM_CACTVS_HBOND_DONOR>
2

> <PUBCHEM_CACTVS_ROTATABLE_BOND>
9

> <PUBCHEM_CACTVS_SUBSKEYS>
AAADceB7uAAAAAAAAAAAAAAAAAAAAAAAAAAwYAAAAAAAAAABQAAAHgAQAAAADAyhmAYzzoNABACoAiXSfAKCCAEkIgAIiAFObMgOJjKEtZ+DOyDkwhEY6YeY2aGeKAAAAAAAAABQAAAAAAAAAAAAAAAAAA==

> <PUBCHEM_IUPAC_OPENEYE_NAME>
[4-[2-[2-(dimethylamino)-2-oxo-ethoxy]-2-oxo-ethyl]phenyl] 4-guanidinobenzoate

> <PUBCHEM_IUPAC_CAS_NAME>
4-(diaminomethylideneamino)benzoic acid [4-[2-[2-(dimethylamino)-2-oxoethoxy]-2-oxoethyl]phenyl] ester

> <PUBCHEM_IUPAC_NAME_MARKUP>
[4-[2-[2-(dimethylamino)-2-oxoethoxy]-2-oxoethyl]phenyl] 4-(diaminomethylideneamino)benzoate

> <PUBCHEM_IUPAC_NAME>
[4-[2-[2-(dimethylamino)-2-oxoethoxy]-2-oxoethyl]phenyl] 4-(diaminomethylideneamino)benzoate

> <PUBCHEM_IUPAC_SYSTEMATIC_NAME>
[4-[2-[2-(dimethylamino)-2-oxidanylidene-ethoxy]-2-oxidanylidene-ethyl]phenyl] 4-[bis(azanyl)methylideneamino]benzoate

> <PUBCHEM_IUPAC_TRADITIONAL_NAME>
4-guanidinobenzoic acid [4-[2-[2-(dimethylamino)-2-keto-ethoxy]-2-keto-ethyl]phenyl] ester

> <PUBCHEM_IUPAC_INCHI>
InChI=1S/C20H22N4O5/c1-24(2)17(25)12-28-18(26)11-13-3-9-16(10-4-13)29-19(27)14-5-7-15(8-6-14)23-20(21)22/h3-10H,11-12H2,1-2H3,(H4,21,22,23)

> <PUBCHEM_IUPAC_INCHIKEY>
XASIMHXSUQUHLV-UHFFFAOYSA-N

> <PUBCHEM_XLOGP3_AA>
1.1

> <PUBCHEM_EXACT_MASS>
398.15901982

> <PUBCHEM_MOLECULAR_FORMULA>
C20H22N4O5

> <PUBCHEM_MOLECULAR_WEIGHT>
398.4

> <PUBCHEM_OPENEYE_CAN_SMILES>
CN(C)C(=O)COC(=O)CC1=CC=C(C=C1)OC(=O)C2=CC=C(C=C2)N=C(N)N

> <PUBCHEM_OPENEYE_ISO_SMILES>
CN(C)C(=O)COC(=O)CC1=CC=C(C=C1)OC(=O)C2=CC=C(C=C2)N=C(N)N

> <PUBCHEM_CACTVS_TPSA>
137

> <PUBCHEM_MONOISOTOPIC_WEIGHT>
398.15901982

> <PUBCHEM_TOTAL_CHARGE>
0

> <PUBCHEM_HEAVY_ATOM_COUNT>
29

> <PUBCHEM_ATOM_DEF_STEREO_COUNT>
0

> <PUBCHEM_ATOM_UDEF_STEREO_COUNT>
0

> <PUBCHEM_BOND_DEF_STEREO_COUNT>
0

> <PUBCHEM_BOND_UDEF_STEREO_COUNT>
0

> <PUBCHEM_ISOTOPIC_ATOM_COUNT>
0

> <PUBCHEM_COMPONENT_COUNT>
1

> <PUBCHEM_CACTVS_TAUTO_COUNT>
15

> <PUBCHEM_COORDINATE_TYPE>
1
5
255

> <PUBCHEM_BONDANNOTATIONS>
10  12  8
10  13  8
12  15  8
13  16  8
14  15  8
14  16  8
19  22  8
19  23  8
22  25  8
23  26  8
24  25  8
24  26  8

$$$$
5291
  -OEChem-03012215082D

 68 72  0     0  0  0  0  0  0999 V2000
    7.1962   -0.5000    0.0000 O   0  0  0  0  0  0  0  0  0  0  0  0
    2.8660   -3.0000    0.0000 N   0  0  0  0  0  0  0  0  0  0  0  0
    2.8660   -5.0000    0.0000 N   0  0  0  0  0  0  0  0  0  0  0  0
    6.3301    1.0000    0.0000 N   0  0  0  0  0  0  0  0  0  0  0  0
    8.0622    4.0000    0.0000 N   0  0  0  0  0  0  0  0  0  0  0  0
    6.3301    4.0000    0.0000 N   0  0  0  0  0  0  0  0  0  0  0  0
    7.1962    5.5000    0.0000 N   0  0  0  0  0  0  0  0  0  0  0  0
    2.8660    4.0000    0.0000 N   0  0  0  0  0  0  0  0  0  0  0  0
    2.0000   -3.5000    0.0000 C   0  0  0  0  0  0  0  0  0  0  0  0
    3.7320   -3.5000    0.0000 C   0  0  0  0  0  0  0  0  0  0  0  0
    2.0000   -4.5000    0.0000 C   0  0  0  0  0  0  0  0  0  0  0  0
    3.7320   -4.5000    0.0000 C   0  0  0  0  0  0  0  0  0  0  0  0
    2.8660   -2.0000    0.0000 C   0  0  0  0  0  0  0  0  0  0  0  0
    2.8660   -6.0000    0.0000 C   0  0  0  0  0  0  0  0  0  0  0  0
    3.7320   -1.5000    0.0000 C   0  0  0  0  0  0  0  0  0  0  0  0
    4.5981   -2.0000    0.0000 C   0  0  0  0  0  0  0  0  0  0  0  0
    3.7320   -0.5000    0.0000 C   0  0  0  0  0  0  0  0  0  0  0  0
    5.4641   -1.5000    0.0000 C   0  0  0  0  0  0  0  0  0  0  0  0
    4.5981    0.0000    0.0000 C   0  0  0  0  0  0  0  0  0  0  0  0
    5.4641   -0.5000    0.0000 C   0  0  0  0  0  0  0  0  0  0  0  0
    6.3301    0.0000    0.0000 C   0  0  0  0  0  0  0  0  0  0  0  0
    7.1962    1.5000    0.0000 C   0  0  0  0  0  0  0  0  0  0  0  0
    8.0622    3.0000    0.0000 C   0  0  0  0  0  0  0  0  0  0  0  0
    7.1962    2.5000    0.0000 C   0  0  0  0  0  0  0  0  0  0  0  0
    8.9282    2.5000    0.0000 C   0  0  0  0  0  0  0  0  0  0  0  0
    8.0622    1.0000    0.0000 C   0  0  0  0  0  0  0  0  0  0  0  0
    8.9282    1.5000    0.0000 C   0  0  0  0  0  0  0  0  0  0  0  0
    9.7942    3.0000    0.0000 C   0  0  0  0  0  0  0  0  0  0  0  0
    7.1962    4.5000    0.0000 C   0  0  0  0  0  0  0  0  0  0  0  0
    5.4641    4.5000    0.0000 C   0  0  0  0  0  0  0  0  0  0  0  0
    4.5981    4.0000    0.0000 C   0  0  0  0  0  0  0  0  0  0  0  0
    5.4641    5.5000    0.0000 C   0  0  0  0  0  0  0  0  0  0  0  0
    6.3301    6.0000    0.0000 C   0  0  0  0  0  0  0  0  0  0  0  0
    4.5981    3.0000    0.0000 C   0  0  0  0  0  0  0  0  0  0  0  0
    3.7320    4.5000    0.0000 C   0  0  0  0  0  0  0  0  0  0  0  0
    3.7320    2.5000    0.0000 C   0  0  0  0  0  0  0  0  0  0  0  0
    2.8660    3.0000    0.0000 C   0  0  0  0  0  0  0  0  0  0  0  0
    1.7880   -2.9174    0.0000 H   0  0  0  0  0  0  0  0  0  0  0  0
    1.3894   -3.6077    0.0000 H   0  0  0  0  0  0  0  0  0  0  0  0
    4.3426   -3.6077    0.0000 H   0  0  0  0  0  0  0  0  0  0  0  0
    3.9441   -2.9174    0.0000 H   0  0  0  0  0  0  0  0  0  0  0  0
    1.3894   -4.3923    0.0000 H   0  0  0  0  0  0  0  0  0  0  0  0
    1.7880   -5.0826    0.0000 H   0  0  0  0  0  0  0  0  0  0  0  0
    3.9441   -5.0826    0.0000 H   0  0  0  0  0  0  0  0  0  0  0  0
    4.3426   -4.3923    0.0000 H   0  0  0  0  0  0  0  0  0  0  0  0
    2.6540   -1.4174    0.0000 H   0  0  0  0  0  0  0  0  0  0  0  0
    2.2554   -2.1077    0.0000 H   0  0  0  0  0  0  0  0  0  0  0  0
    2.2460   -6.0000    0.0000 H   0  0  0  0  0  0  0  0  0  0  0  0
    2.8660   -6.6200    0.0000 H   0  0  0  0  0  0  0  0  0  0  0  0
    3.4860   -6.0000    0.0000 H   0  0  0  0  0  0  0  0  0  0  0  0
    4.5981   -2.6200    0.0000 H   0  0  0  0  0  0  0  0  0  0  0  0
    3.1951   -0.1900    0.0000 H   0  0  0  0  0  0  0  0  0  0  0  0
    6.0010   -1.8100    0.0000 H   0  0  0  0  0  0  0  0  0  0  0  0
    4.5981    0.6200    0.0000 H   0  0  0  0  0  0  0  0  0  0  0  0
    5.7932    1.3100    0.0000 H   0  0  0  0  0  0  0  0  0  0  0  0
    6.6592    2.8100    0.0000 H   0  0  0  0  0  0  0  0  0  0  0  0
    8.0622    0.3800    0.0000 H   0  0  0  0  0  0  0  0  0  0  0  0
    9.4651    1.1900    0.0000 H   0  0  0  0  0  0  0  0  0  0  0  0
    8.5991    4.3100    0.0000 H   0  0  0  0  0  0  0  0  0  0  0  0
   10.1042    2.4631    0.0000 H   0  0  0  0  0  0  0  0  0  0  0  0
   10.3312    3.3100    0.0000 H   0  0  0  0  0  0  0  0  0  0  0  0
    9.4842    3.5369    0.0000 H   0  0  0  0  0  0  0  0  0  0  0  0
    4.9272    5.8100    0.0000 H   0  0  0  0  0  0  0  0  0  0  0  0
    6.3301    6.6200    0.0000 H   0  0  0  0  0  0  0  0  0  0  0  0
    5.1350    2.6900    0.0000 H   0  0  0  0  0  0  0  0  0  0  0  0
    3.7320    5.1200    0.0000 H   0  0  0  0  0  0  0  0  0  0  0  0
    3.7320    1.8800    0.0000 H   0  0  0  0  0  0  0  0  0  0  0  0
    2.3291    2.6900    0.0000 H   0  0  0  0  0  0  0  0  0  0  0  0
  1 21  2  0  0  0  0
  2  9  1  0  0  0  0
  2 10  1  0  0  0  0
  2 13  1  0  0  0  0
  3 11  1  0  0  0  0
  3 12  1  0  0  0  0
  3 14  1  0  0  0  0
  4 21  1  0  0  0  0
  4 22  1  0  0  0  0
  4 55  1  0  0  0  0
  5 23  1  0  0  0  0
  5 29  1  0  0  0  0
  5 59  1  0  0  0  0
  6 29  1  0  0  0  0
  6 30  2  0  0  0  0
  7 29  2  0  0  0  0
  7 33  1  0  0  0  0
  8 35  1  0  0  0  0
  8 37  2  0  0  0  0
  9 11  1  0  0  0  0
  9 38  1  0  0  0  0
  9 39  1  0  0  0  0
 10 12  1  0  0  0  0
 10 40  1  0  0  0  0
 10 41  1  0  0  0  0
 11 42  1  0  0  0  0
 11 43  1  0  0  0  0
 12 44  1  0  0  0  0
 12 45  1  0  0  0  0
 13 15  1  0  0  0  0
 13 46  1  0  0  0  0
 13 47  1  0  0  0  0
 14 48  1  0  0  0  0
 14 49  1  0  0  0  0
 14 50  1  0  0  0  0
 15 16  2  0  0  0  0
 15 17  1  0  0  0  0
 16 18  1  0  0  0  0
 16 51  1  0  0  0  0
 17 19  2  0  0  0  0
 17 52  1  0  0  0  0
 18 20  2  0  0  0  0
 18 53  1  0  0  0  0
 19 20  1  0  0  0  0
 19 54  1  0  0  0  0
 20 21  1  0  0  0  0
 22 24  2  0  0  0  0
 22 26  1  0  0  0  0
 23 24  1  0  0  0  0
 23 25  2  0  0  0  0
 24 56  1  0  0  0  0
 25 27  1  0  0  0  0
 25 28  1  0  0  0  0
 26 27  2  0  0  0  0
 26 57  1  0  0  0  0
 27 58  1  0  0  0  0
 28 60  1  0  0  0  0
 28 61  1  0  0  0  0
 28 62  1  0  0  0  0
 30 31  1  0  0  0  0
 30 32  1  0  0  0  0
 31 34  1  0  0  0  0
 31 35  2  0  0  0  0
 32 33  2  0  0  0  0
 32 63  1  0  0  0  0
 33 64  1  0  0  0  0
 34 36  2  0  0  0  0
 34 65  1  0  0  0  0
 35 66  1  0  0  0  0
 36 37  1  0  0  0  0
 36 67  1  0  0  0  0
 37 68  1  0  0  0  0
M  END
> <PUBCHEM_COMPOUND_CID>
5291

> <PUBCHEM_COMPOUND_CANONICALIZED>
1

> <PUBCHEM_CACTVS_COMPLEXITY>
706

> <PUBCHEM_CACTVS_HBOND_ACCEPTOR>
7

> <PUBCHEM_CACTVS_HBOND_DONOR>
2

> <PUBCHEM_CACTVS_ROTATABLE_BOND>
7

> <PUBCHEM_CACTVS_SUBSKEYS>
AAADceB7oAAAAAAAAAAAAAAAAAAAAAAAAAA8eLECAAAAAAAB9AAAHgAQAAAADAjBngQ/0JfIEACoAzV3dACCgCk1AqAJ2CE4ZNiIaPLA3dGUJQholALIyacYiACOSAAAAAQCAACQAAAACAQAAAAAAAAAAA==

> <PUBCHEM_IUPAC_OPENEYE_NAME>
4-[(4-methylpiperazin-1-yl)methyl]-N-[4-methyl-3-[[4-(3-pyridyl)pyrimidin-2-yl]amino]phenyl]benzamide

> <PUBCHEM_IUPAC_CAS_NAME>
4-[(4-methyl-1-piperazinyl)methyl]-N-[4-methyl-3-[[4-(3-pyridinyl)-2-pyrimidinyl]amino]phenyl]benzamide

> <PUBCHEM_IUPAC_NAME_MARKUP>
4-[(4-methylpiperazin-1-yl)methyl]-<I>N</I>-[4-methyl-3-[(4-pyridin-3-ylpyrimidin-2-yl)amino]phenyl]benzamide

> <PUBCHEM_IUPAC_NAME>
4-[(4-methylpiperazin-1-yl)methyl]-N-[4-methyl-3-[(4-pyridin-3-ylpyrimidin-2-yl)amino]phenyl]benzamide

> <PUBCHEM_IUPAC_SYSTEMATIC_NAME>
4-[(4-methylpiperazin-1-yl)methyl]-N-[4-methyl-3-[(4-pyridin-3-ylpyrimidin-2-yl)amino]phenyl]benzamide

> <PUBCHEM_IUPAC_TRADITIONAL_NAME>
4-[(4-methylpiperazino)methyl]-N-[4-methyl-3-[[4-(3-pyridyl)pyrimidin-2-yl]amino]phenyl]benzamide

> <PUBCHEM_IUPAC_INCHI>
InChI=1S/C29H31N7O/c1-21-5-10-25(18-27(21)34-29-31-13-11-26(33-29)24-4-3-12-30-19-24)32-28(37)23-8-6-22(7-9-23)20-36-16-14-35(2)15-17-36/h3-13,18-19H,14-17,20H2,1-2H3,(H,32,37)(H,31,33,34)

> <PUBCHEM_IUPAC_INCHIKEY>
KTUFNOKKBVMGRW-UHFFFAOYSA-N

> <PUBCHEM_XLOGP3_AA>
3.5

> <PUBCHEM_EXACT_MASS>
493.25900864

> <PUBCHEM_MOLECULAR_FORMULA>
C29H31N7O

> <PUBCHEM_MOLECULAR_WEIGHT>
493.6

> <PUBCHEM_OPENEYE_CAN_SMILES>
CC1=C(C=C(C=C1)NC(=O)C2=CC=C(C=C2)CN3CCN(CC3)C)NC4=NC=CC(=N4)C5=CN=CC=C5

> <PUBCHEM_OPENEYE_ISO_SMILES>
CC1=C(C=C(C=C1)NC(=O)C2=CC=C(C=C2)CN3CCN(CC3)C)NC4=NC=CC(=N4)C5=CN=CC=C5

> <PUBCHEM_CACTVS_TPSA>
86.3

> <PUBCHEM_MONOISOTOPIC_WEIGHT>
493.25900864

> <PUBCHEM_TOTAL_CHARGE>
0

> <PUBCHEM_HEAVY_ATOM_COUNT>
37

> <PUBCHEM_ATOM_DEF_STEREO_COUNT>
0

> <PUBCHEM_ATOM_UDEF_STEREO_COUNT>
0

> <PUBCHEM_BOND_DEF_STEREO_COUNT>
0

> <PUBCHEM_BOND_UDEF_STEREO_COUNT>
0

> <PUBCHEM_ISOTOPIC_ATOM_COUNT>
0

> <PUBCHEM_COMPONENT_COUNT>
1

> <PUBCHEM_CACTVS_TAUTO_COUNT>
-1

> <PUBCHEM_COORDINATE_TYPE>
1
5
255

> <PUBCHEM_BONDANNOTATIONS>
15  16  8
15  17  8
16  18  8
17  19  8
18  20  8
19  20  8
22  24  8
22  26  8
23  24  8
23  25  8
25  27  8
26  27  8
30  32  8
31  34  8
31  35  8
32  33  8
34  36  8
36  37  8
6  29  8
6  30  8
7  29  8
7  33  8
8  35  8
8  37  8

$$$$
5426
  -OEChem-03012215082D

 29 31  0     1  0  0  0  0  0999 V2000
    6.2619   -1.7320    0.0000 O   0  0  0  0  0  0  0  0  0  0  0  0
    4.9889    1.7552    0.0000 O   0  0  0  0  0  0  0  0  0  0  0  0
    4.9889   -1.7552    0.0000 O   0  0  0  0  0  0  0  0  0  0  0  0
    9.2619    0.0000    0.0000 O   0  0  0  0  0  0  0  0  0  0  0  0
    5.2619    0.0000    0.0000 N   0  0  0  0  0  0  0  0  0  0  0  0
    7.7619   -0.8660    0.0000 N   0  0  0  0  0  0  0  0  0  0  0  0
    6.2619    0.0000    0.0000 C   0  0  3  0  0  0  0  0  0  0  0  0
    6.7619    0.8660    0.0000 C   0  0  0  0  0  0  0  0  0  0  0  0
    7.7619    0.8660    0.0000 C   0  0  0  0  0  0  0  0  0  0  0  0
    6.7619   -0.8660    0.0000 C   0  0  0  0  0  0  0  0  0  0  0  0
    4.6783    0.8047    0.0000 C   0  0  0  0  0  0  0  0  0  0  0  0
    4.6783   -0.8047    0.0000 C   0  0  0  0  0  0  0  0  0  0  0  0
    3.7320    0.5000    0.0000 C   0  0  0  0  0  0  0  0  0  0  0  0
    3.7320   -0.5000    0.0000 C   0  0  0  0  0  0  0  0  0  0  0  0
    8.2619    0.0000    0.0000 C   0  0  0  0  0  0  0  0  0  0  0  0
    2.8660    1.0000    0.0000 C   0  0  0  0  0  0  0  0  0  0  0  0
    2.8660   -1.0000    0.0000 C   0  0  0  0  0  0  0  0  0  0  0  0
    2.0000    0.5000    0.0000 C   0  0  0  0  0  0  0  0  0  0  0  0
    2.0000   -0.5000    0.0000 C   0  0  0  0  0  0  0  0  0  0  0  0
    5.9519   -0.5369    0.0000 H   0  0  0  0  0  0  0  0  0  0  0  0
    6.8695    1.4766    0.0000 H   0  0  0  0  0  0  0  0  0  0  0  0
    6.1793    1.0781    0.0000 H   0  0  0  0  0  0  0  0  0  0  0  0
    8.3445    1.0781    0.0000 H   0  0  0  0  0  0  0  0  0  0  0  0
    7.6542    1.4766    0.0000 H   0  0  0  0  0  0  0  0  0  0  0  0
    8.0719   -1.4030    0.0000 H   0  0  0  0  0  0  0  0  0  0  0  0
    2.8660    1.6200    0.0000 H   0  0  0  0  0  0  0  0  0  0  0  0
    2.8660   -1.6200    0.0000 H   0  0  0  0  0  0  0  0  0  0  0  0
    1.4631    0.8100    0.0000 H   0  0  0  0  0  0  0  0  0  0  0  0
    1.4631   -0.8100    0.0000 H   0  0  0  0  0  0  0  0  0  0  0  0
  1 10  2  0  0  0  0
  2 11  2  0  0  0  0
  3 12  2  0  0  0  0
  4 15  2  0  0  0  0
  5  7  1  0  0  0  0
  5 11  1  0  0  0  0
  5 12  1  0  0  0  0
  6 10  1  0  0  0  0
  6 15  1  0  0  0  0
  6 25  1  0  0  0  0
  7  8  1  0  0  0  0
  7 10  1  0  0  0  0
  7 20  1  0  0  0  0
  8  9  1  0  0  0  0
  8 21  1  0  0  0  0
  8 22  1  0  0  0  0
  9 15  1  0  0  0  0
  9 23  1  0  0  0  0
  9 24  1  0  0  0  0
 11 13  1  0  0  0  0
 12 14  1  0  0  0  0
 13 14  1  0  0  0  0
 13 16  2  0  0  0  0
 14 17  2  0  0  0  0
 16 18  1  0  0  0  0
 16 26  1  0  0  0  0
 17 19  1  0  0  0  0
 17 27  1  0  0  0  0
 18 19  2  0  0  0  0
 18 28  1  0  0  0  0
 19 29  1  0  0  0  0
M  END
> <PUBCHEM_COMPOUND_CID>
5426

> <PUBCHEM_COMPOUND_CANONICALIZED>
1

> <PUBCHEM_CACTVS_COMPLEXITY>
449

> <PUBCHEM_CACTVS_HBOND_ACCEPTOR>
4

> <PUBCHEM_CACTVS_HBOND_DONOR>
1

> <PUBCHEM_CACTVS_ROTATABLE_BOND>
1

> <PUBCHEM_CACTVS_SUBSKEYS>
AAADccBzOAAAAAAAAAAAAAAAAAAAAWAAAAA8QAAAAAAAAFgBAAAAHgAQAAAADCjBmAQwAIPAAACIAiFSEACCAAAkAAAIiAGIBMgIYDKAlTGUIQhgliCIiYcdi4COgAAAAAAQAAAAAAAAACAAAAAAAAAAAA==

> <PUBCHEM_IUPAC_OPENEYE_NAME>
2-(2,6-dioxo-3-piperidyl)isoindoline-1,3-dione

> <PUBCHEM_IUPAC_CAS_NAME>
2-(2,6-dioxo-3-piperidinyl)isoindole-1,3-dione

> <PUBCHEM_IUPAC_NAME_MARKUP>
2-(2,6-dioxopiperidin-3-yl)isoindole-1,3-dione

> <PUBCHEM_IUPAC_NAME>
2-(2,6-dioxopiperidin-3-yl)isoindole-1,3-dione

> <PUBCHEM_IUPAC_SYSTEMATIC_NAME>
2-[2,6-bis(oxidanylidene)piperidin-3-yl]isoindole-1,3-dione

> <PUBCHEM_IUPAC_TRADITIONAL_NAME>
thalidomide

> <PUBCHEM_IUPAC_INCHI>
InChI=1S/C13H10N2O4/c16-10-6-5-9(11(17)14-10)15-12(18)7-3-1-2-4-8(7)13(15)19/h1-4,9H,5-6H2,(H,14,16,17)

> <PUBCHEM_IUPAC_INCHIKEY>
UEJJHQNACJXSKW-UHFFFAOYSA-N

> <PUBCHEM_XLOGP3>
0.3

> <PUBCHEM_EXACT_MASS>
258.06405680

> <PUBCHEM_MOLECULAR_FORMULA>
C13H10N2O4

> <PUBCHEM_MOLECULAR_WEIGHT>
258.23

> <PUBCHEM_OPENEYE_CAN_SMILES>
C1CC(=O)NC(=O)C1N2C(=O)C3=CC=CC=C3C2=O

> <PUBCHEM_OPENEYE_ISO_SMILES>
C1CC(=O)NC(=O)C1N2C(=O)C3=CC=CC=C3C2=O

> <PUBCHEM_CACTVS_TPSA>
83.6

> <PUBCHEM_MONOISOTOPIC_WEIGHT>
258.06405680

> <PUBCHEM_TOTAL_CHARGE>
0

> <PUBCHEM_HEAVY_ATOM_COUNT>
19

> <PUBCHEM_ATOM_DEF_STEREO_COUNT>
0

> <PUBCHEM_ATOM_UDEF_STEREO_COUNT>
1

> <PUBCHEM_BOND_DEF_STEREO_COUNT>
0

> <PUBCHEM_BOND_UDEF_STEREO_COUNT>
0

> <PUBCHEM_ISOTOPIC_ATOM_COUNT>
0

> <PUBCHEM_COMPONENT_COUNT>
1

> <PUBCHEM_CACTVS_TAUTO_COUNT>
8

> <PUBCHEM_COORDINATE_TYPE>
1
5
255

> <PUBCHEM_BONDANNOTATIONS>
13  14  8
13  16  8
14  17  8
16  18  8
17  19  8
18  19  8
7  5  3

$$$$
37542
  -OEChem-03012215082D

 29 30  0     1  0  0  0  0  0999 V2000
    5.0298   -1.5122    0.0000 O   0  0  0  0  0  0  0  0  0  0  0  0
    2.4608   -1.2031    0.0000 O   0  0  0  0  0  0  0  0  0  0  0  0
    3.1330   -3.2722    0.0000 O   0  0  0  0  0  0  0  0  0  0  0  0
    6.3031   -3.1677    0.0000 O   0  0  0  0  0  0  0  0  0  0  0  0
    6.3031    2.3190    0.0000 O   0  0  0  0  0  0  0  0  0  0  0  0
    4.2208    0.0756    0.0000 N   0  0  0  0  0  0  0  0  0  0  0  0
    5.0298    0.6634    0.0000 N   0  0  0  0  0  0  0  0  0  0  0  0
    3.7208    1.6145    0.0000 N   0  0  0  0  0  0  0  0  0  0  0  0
    4.9019    3.3370    0.0000 N   0  0  0  0  0  0  0  0  0  0  0  0
    3.7208   -2.4632    0.0000 C   0  0  1  0  0  0  0  0  0  0  0  0
    3.4118   -1.5122    0.0000 C   0  0  2  0  0  0  0  0  0  0  0  0
    4.7208   -2.4632    0.0000 C   0  0  1  0  0  0  0  0  0  0  0  0
    4.2208   -0.9244    0.0000 C   0  0  1  0  0  0  0  0  0  0  0  0
    5.3086   -3.2722    0.0000 C   0  0  0  0  0  0  0  0  0  0  0  0
    3.4118    0.6634    0.0000 C   0  0  0  0  0  0  0  0  0  0  0  0
    4.7208    1.6145    0.0000 C   0  0  0  0  0  0  0  0  0  0  0  0
    5.3086    2.4235    0.0000 C   0  0  0  0  0  0  0  0  0  0  0  0
    3.3148   -0.8998    0.0000 H   0  0  0  0  0  0  0  0  0  0  0  0
    3.1085   -2.3662    0.0000 H   0  0  0  0  0  0  0  0  0  0  0  0
    5.3332   -2.3662    0.0000 H   0  0  0  0  0  0  0  0  0  0  0  0
    3.6684   -0.6429    0.0000 H   0  0  0  0  0  0  0  0  0  0  0  0
    4.7514   -3.5440    0.0000 H   0  0  0  0  0  0  0  0  0  0  0  0
    5.4795   -3.8682    0.0000 H   0  0  0  0  0  0  0  0  0  0  0  0
    2.0000   -1.6180    0.0000 H   0  0  0  0  0  0  0  0  0  0  0  0
    3.3852   -3.8386    0.0000 H   0  0  0  0  0  0  0  0  0  0  0  0
    2.8222    0.4718    0.0000 H   0  0  0  0  0  0  0  0  0  0  0  0
    6.6676   -3.6693    0.0000 H   0  0  0  0  0  0  0  0  0  0  0  0
    5.2663    3.8386    0.0000 H   0  0  0  0  0  0  0  0  0  0  0  0
    4.2853    3.4018    0.0000 H   0  0  0  0  0  0  0  0  0  0  0  0
  1 12  1  0  0  0  0
  1 13  1  0  0  0  0
 11  2  1  1  0  0  0
  2 24  1  0  0  0  0
 10  3  1  1  0  0  0
  3 25  1  0  0  0  0
  4 14  1  0  0  0  0
  4 27  1  0  0  0  0
  5 17  2  0  0  0  0
  6  7  1  0  0  0  0
 13  6  1  6  0  0  0
  6 15  1  0  0  0  0
  7 16  2  0  0  0  0
  8 15  2  0  0  0  0
  8 16  1  0  0  0  0
  9 17  1  0  0  0  0
  9 28  1  0  0  0  0
  9 29  1  0  0  0  0
 10 11  1  0  0  0  0
 10 12  1  0  0  0  0
 10 19  1  0  0  0  0
 11 13  1  0  0  0  0
 11 18  1  0  0  0  0
 12 14  1  6  0  0  0
 12 20  1  0  0  0  0
 13 21  1  0  0  0  0
 14 22  1  0  0  0  0
 14 23  1  0  0  0  0
 15 26  1  0  0  0  0
 16 17  1  0  0  0  0
M  END
> <PUBCHEM_COMPOUND_CID>
37542

> <PUBCHEM_COMPOUND_CANONICALIZED>
1

> <PUBCHEM_CACTVS_COMPLEXITY>
304

> <PUBCHEM_CACTVS_HBOND_ACCEPTOR>
7

> <PUBCHEM_CACTVS_HBOND_DONOR>
4

> <PUBCHEM_CACTVS_ROTATABLE_BOND>
3

> <PUBCHEM_CACTVS_SUBSKEYS>
AAADccBzuAAAAAAAAAAAAAAAAAAAAWJAAAAAAAAAAAAAAAABgAAAHgAYCAAACBThgwYFEAZIFgAqAAMxNAAQgAsSgKAVQACIAACDWAIAiCAeQAAPCAITAADwMAIAAAAAAAAAAAAAAAAAAAAAAAAAAAAAAA==

> <PUBCHEM_IUPAC_OPENEYE_NAME>
1-[(2R,3R,4S,5R)-3,4-dihydroxy-5-(hydroxymethyl)tetrahydrofuran-2-yl]-1,2,4-triazole-3-carboxamide

> <PUBCHEM_IUPAC_CAS_NAME>
1-[(2R,3R,4S,5R)-3,4-dihydroxy-5-(hydroxymethyl)-2-oxolanyl]-1,2,4-triazole-3-carboxamide

> <PUBCHEM_IUPAC_NAME_MARKUP>
1-[(2<I>R</I>,3<I>R</I>,4<I>S</I>,5<I>R</I>)-3,4-dihydroxy-5-(hydroxymethyl)oxolan-2-yl]-1,2,4-triazole-3-carboxamide

> <PUBCHEM_IUPAC_NAME>
1-[(2R,3R,4S,5R)-3,4-dihydroxy-5-(hydroxymethyl)oxolan-2-yl]-1,2,4-triazole-3-carboxamide

> <PUBCHEM_IUPAC_SYSTEMATIC_NAME>
1-[(2R,3R,4S,5R)-5-(hydroxymethyl)-3,4-bis(oxidanyl)oxolan-2-yl]-1,2,4-triazole-3-carboxamide

> <PUBCHEM_IUPAC_TRADITIONAL_NAME>
1-[(2R,3R,4S,5R)-3,4-dihydroxy-5-methylol-tetrahydrofuran-2-yl]-1,2,4-triazole-3-carboxamide

> <PUBCHEM_IUPAC_INCHI>
InChI=1S/C8H12N4O5/c9-6(16)7-10-2-12(11-7)8-5(15)4(14)3(1-13)17-8/h2-5,8,13-15H,1H2,(H2,9,16)/t3-,4-,5-,8-/m1/s1

> <PUBCHEM_IUPAC_INCHIKEY>
IWUCXVSUMQZMFG-AFCXAGJDSA-N

> <PUBCHEM_XLOGP3>
-1.8

> <PUBCHEM_EXACT_MASS>
244.08076950

> <PUBCHEM_MOLECULAR_FORMULA>
C8H12N4O5

> <PUBCHEM_MOLECULAR_WEIGHT>
244.20

> <PUBCHEM_OPENEYE_CAN_SMILES>
C1=NC(=NN1C2C(C(C(O2)CO)O)O)C(=O)N

> <PUBCHEM_OPENEYE_ISO_SMILES>
C1=NC(=NN1[C@H]2[C@@H]([C@@H]([C@H](O2)CO)O)O)C(=O)N

> <PUBCHEM_CACTVS_TPSA>
144

> <PUBCHEM_MONOISOTOPIC_WEIGHT>
244.08076950

> <PUBCHEM_TOTAL_CHARGE>
0

> <PUBCHEM_HEAVY_ATOM_COUNT>
17

> <PUBCHEM_ATOM_DEF_STEREO_COUNT>
4

> <PUBCHEM_ATOM_UDEF_STEREO_COUNT>
0

> <PUBCHEM_BOND_DEF_STEREO_COUNT>
0

> <PUBCHEM_BOND_UDEF_STEREO_COUNT>
0

> <PUBCHEM_ISOTOPIC_ATOM_COUNT>
0

> <PUBCHEM_COMPONENT_COUNT>
1

> <PUBCHEM_CACTVS_TAUTO_COUNT>
-1

> <PUBCHEM_COORDINATE_TYPE>
1
5
255

> <PUBCHEM_BONDANNOTATIONS>
12  14  6
11  2  5
10  3  5
13  6  6
6  15  8
6  7  8
7  16  8
8  15  8
8  16  8

$$$$
5284616
  -OEChem-03012215082D

144147  0     1  0  0  0  0  0999 V2000
    6.7839   -2.6784    0.0000 O   0  0  0  0  0  0  0  0  0  0  0  0
    8.5159   -3.6783    0.0000 O   0  0  0  0  0  0  0  0  0  0  0  0
    9.0811    2.5274    0.0000 O   0  0  0  0  0  0  0  0  0  0  0  0
   13.5434   -1.0117    0.0000 O   0  0  0  0  0  0  0  0  0  0  0  0
   11.6916   -0.3436    0.0000 O   0  0  0  0  0  0  0  0  0  0  0  0
   10.2055    0.9963    0.0000 O   0  0  0  0  0  0  0  0  0  0  0  0
    6.2526    1.2771    0.0000 O   0  0  0  0  0  0  0  0  0  0  0  0
   13.0194    1.4280    0.0000 O   0  0  0  0  0  0  0  0  0  0  0  0
   11.6377   -1.0269    0.0000 O   0  0  0  0  0  0  0  0  0  0  0  0
   10.8113    0.9884    0.0000 O   0  0  0  0  0  0  0  0  0  0  0  0
    2.3100    1.1954    0.0000 O   0  0  0  0  0  0  0  0  0  0  0  0
    4.9410    0.8710    0.0000 O   0  0  0  0  0  0  0  0  0  0  0  0
    3.1511   -1.0117    0.0000 O   0  0  0  0  0  0  0  0  0  0  0  0
   11.8113    1.9883    0.0000 N   0  0  0  0  0  0  0  0  0  0  0  0
    8.5159   -0.6783    0.0000 C   0  0  1  0  0  0  0  0  0  0  0  0
    7.6499   -1.1783    0.0000 C   0  0  0  0  0  0  0  0  0  0  0  0
    9.3819   -1.1783    0.0000 C   0  0  0  0  0  0  0  0  0  0  0  0
    8.5158    0.3217    0.0000 C   0  0  0  0  0  0  0  0  0  0  0  0
    7.6499   -2.1784    0.0000 C   0  0  2  0  0  0  0  0  0  0  0  0
    9.3820   -2.1783    0.0000 C   0  0  0  0  0  0  0  0  0  0  0  0
    8.5159   -2.6783    0.0000 C   0  0  1  0  0  0  0  0  0  0  0  0
    7.8732    1.0877    0.0000 C   0  0  2  0  0  0  0  0  0  0  0  0
    8.2151    2.0274    0.0000 C   0  0  2  0  0  0  0  0  0  0  0  0
    6.8883    0.9140    0.0000 C   0  0  0  0  0  0  0  0  0  0  0  0
    7.3491    2.5274    0.0000 C   0  0  0  0  0  0  0  0  0  0  0  0
   13.5512    0.0064    0.0000 C   0  0  1  0  0  0  0  0  0  0  0  0
   10.9453    2.4883    0.0000 C   0  0  1  0  0  0  0  0  0  0  0  0
   12.6774   -0.5117    0.0000 C   0  0  2  0  0  0  0  0  0  0  0  0
   13.5434   -2.0117    0.0000 C   0  0  1  0  0  0  0  0  0  0  0  0
   14.4329   -0.4981    0.0000 C   0  0  0  0  0  0  0  0  0  0  0  0
   14.4289   -1.5140    0.0000 C   0  0  0  0  0  0  0  0  0  0  0  0
   10.9453    3.4883    0.0000 C   0  0  0  0  0  0  0  0  0  0  0  0
   10.0793    1.9883    0.0000 C   0  0  0  0  0  0  0  0  0  0  0  0
    6.3831    2.2686    0.0000 C   0  0  0  0  0  0  0  0  0  0  0  0
   12.6774    2.4883    0.0000 C   0  0  0  0  0  0  0  0  0  0  0  0
   11.8113    3.9883    0.0000 C   0  0  0  0  0  0  0  0  0  0  0  0
   12.6774    3.4883    0.0000 C   0  0  0  0  0  0  0  0  0  0  0  0
    6.7839   -3.6784    0.0000 C   0  0  0  0  0  0  0  0  0  0  0  0
   12.6774   -2.5117    0.0000 C   0  0  0  0  0  0  0  0  0  0  0  0
   12.6774    0.4883    0.0000 C   0  0  0  0  0  0  0  0  0  0  0  0
   11.8113    0.9883    0.0000 C   0  0  0  0  0  0  0  0  0  0  0  0
   14.1880    0.7774    0.0000 C   0  0  0  0  0  0  0  0  0  0  0  0
    5.5171    2.7686    0.0000 C   0  0  2  0  0  0  0  0  0  0  0  0
   11.8113   -2.0117    0.0000 C   0  0  1  0  0  0  0  0  0  0  0  0
    5.2583    3.7345    0.0000 C   0  0  0  0  0  0  0  0  0  0  0  0
    5.0171    1.9026    0.0000 C   0  0  0  0  0  0  0  0  0  0  0  0
   10.9453   -2.5117    0.0000 C   0  0  0  0  0  0  0  0  0  0  0  0
    4.0171    1.9026    0.0000 C   0  0  0  0  0  0  0  0  0  0  0  0
    3.3100    1.1954    0.0000 C   0  0  2  0  0  0  0  0  0  0  0  0
   10.9453   -3.5117    0.0000 C   0  0  0  0  0  0  0  0  0  0  0  0
   10.0793   -2.0117    0.0000 C   0  0  0  0  0  0  0  0  0  0  0  0
    4.0171    0.4883    0.0000 C   0  0  2  0  0  0  0  0  0  0  0  0
   10.6980   -0.6848    0.0000 C   0  0  0  0  0  0  0  0  0  0  0  0
    3.6344    2.8264    0.0000 C   0  0  0  0  0  0  0  0  0  0  0  0
    4.8831   -1.0117    0.0000 C   0  0  1  0  0  0  0  0  0  0  0  0
    4.0171   -0.5117    0.0000 C   0  0  0  0  0  0  0  0  0  0  0  0
    9.2133   -2.5117    0.0000 C   0  0  0  0  0  0  0  0  0  0  0  0
    5.7492   -0.5117    0.0000 C   0  0  0  0  0  0  0  0  0  0  0  0
    6.6152   -1.0117    0.0000 C   0  0  1  0  0  0  0  0  0  0  0  0
    4.8831   -2.0117    0.0000 C   0  0  0  0  0  0  0  0  0  0  0  0
    8.3472   -2.0117    0.0000 C   0  0  0  0  0  0  0  0  0  0  0  0
    6.6152   -2.0117    0.0000 C   0  0  0  0  0  0  0  0  0  0  0  0
    7.4812   -0.5117    0.0000 C   0  0  0  0  0  0  0  0  0  0  0  0
    7.4812   -2.5117    0.0000 C   0  0  0  0  0  0  0  0  0  0  0  0
    5.7343    0.2623    0.0000 C   0  0  0  0  0  0  0  0  0  0  0  0
    9.0528   -0.3683    0.0000 H   0  0  0  0  0  0  0  0  0  0  0  0
    7.4378   -0.5957    0.0000 H   0  0  0  0  0  0  0  0  0  0  0  0
    7.0393   -1.2860    0.0000 H   0  0  0  0  0  0  0  0  0  0  0  0
    9.9925   -1.2860    0.0000 H   0  0  0  0  0  0  0  0  0  0  0  0
    9.5939   -0.5957    0.0000 H   0  0  0  0  0  0  0  0  0  0  0  0
    9.1098    0.1439    0.0000 H   0  0  0  0  0  0  0  0  0  0  0  0
    8.8566    0.8397    0.0000 H   0  0  0  0  0  0  0  0  0  0  0  0
    7.6499   -2.7984    0.0000 H   0  0  0  0  0  0  0  0  0  0  0  0
    9.5940   -2.7609    0.0000 H   0  0  0  0  0  0  0  0  0  0  0  0
    9.9925   -2.0706    0.0000 H   0  0  0  0  0  0  0  0  0  0  0  0
    9.0528   -2.9883    0.0000 H   0  0  0  0  0  0  0  0  0  0  0  0
    7.6611    0.5051    0.0000 H   0  0  0  0  0  0  0  0  0  0  0  0
    8.8663    1.4811    0.0000 H   0  0  0  0  0  0  0  0  0  0  0  0
    6.7806    1.5246    0.0000 H   0  0  0  0  0  0  0  0  0  0  0  0
    6.2777    0.8064    0.0000 H   0  0  0  0  0  0  0  0  0  0  0  0
    6.9959    0.3034    0.0000 H   0  0  0  0  0  0  0  0  0  0  0  0
    7.7875    2.9658    0.0000 H   0  0  0  0  0  0  0  0  0  0  0  0
    7.0391    3.0643    0.0000 H   0  0  0  0  0  0  0  0  0  0  0  0
   13.1481    0.4775    0.0000 H   0  0  0  0  0  0  0  0  0  0  0  0
    9.0529   -3.9883    0.0000 H   0  0  0  0  0  0  0  0  0  0  0  0
   10.2092    2.9133    0.0000 H   0  0  0  0  0  0  0  0  0  0  0  0
   13.9641   -2.7502    0.0000 H   0  0  0  0  0  0  0  0  0  0  0  0
   15.0433   -0.6066    0.0000 H   0  0  0  0  0  0  0  0  0  0  0  0
   14.6442    0.0847    0.0000 H   0  0  0  0  0  0  0  0  0  0  0  0
   14.6357   -2.0984    0.0000 H   0  0  0  0  0  0  0  0  0  0  0  0
   15.0402   -1.4102    0.0000 H   0  0  0  0  0  0  0  0  0  0  0  0
   10.7333    4.0709    0.0000 H   0  0  0  0  0  0  0  0  0  0  0  0
   10.3347    3.3807    0.0000 H   0  0  0  0  0  0  0  0  0  0  0  0
   12.8894    1.9057    0.0000 H   0  0  0  0  0  0  0  0  0  0  0  0
   13.2879    2.5960    0.0000 H   0  0  0  0  0  0  0  0  0  0  0  0
   12.2099    4.4633    0.0000 H   0  0  0  0  0  0  0  0  0  0  0  0
   11.4128    4.4633    0.0000 H   0  0  0  0  0  0  0  0  0  0  0  0
   13.2879    3.3807    0.0000 H   0  0  0  0  0  0  0  0  0  0  0  0
   12.8894    4.0709    0.0000 H   0  0  0  0  0  0  0  0  0  0  0  0
   12.2788   -2.9866    0.0000 H   0  0  0  0  0  0  0  0  0  0  0  0
   13.0759   -2.9866    0.0000 H   0  0  0  0  0  0  0  0  0  0  0  0
    6.1639   -3.6784    0.0000 H   0  0  0  0  0  0  0  0  0  0  0  0
    6.7839   -4.2984    0.0000 H   0  0  0  0  0  0  0  0  0  0  0  0
    7.4039   -3.6784    0.0000 H   0  0  0  0  0  0  0  0  0  0  0  0
   14.6660    0.3825    0.0000 H   0  0  0  0  0  0  0  0  0  0  0  0
   14.5829    1.2554    0.0000 H   0  0  0  0  0  0  0  0  0  0  0  0
   13.7100    1.1722    0.0000 H   0  0  0  0  0  0  0  0  0  0  0  0
    6.0090    3.1460    0.0000 H   0  0  0  0  0  0  0  0  0  0  0  0
   12.3192   -1.6560    0.0000 H   0  0  0  0  0  0  0  0  0  0  0  0
   11.2144    0.0521    0.0000 H   0  0  0  0  0  0  0  0  0  0  0  0
    5.8572    3.8950    0.0000 H   0  0  0  0  0  0  0  0  0  0  0  0
    5.0978    4.3334    0.0000 H   0  0  0  0  0  0  0  0  0  0  0  0
    4.6594    3.5740    0.0000 H   0  0  0  0  0  0  0  0  0  0  0  0
    5.3271    1.3656    0.0000 H   0  0  0  0  0  0  0  0  0  0  0  0
   10.3253   -3.5117    0.0000 H   0  0  0  0  0  0  0  0  0  0  0  0
   10.9453   -4.1317    0.0000 H   0  0  0  0  0  0  0  0  0  0  0  0
   11.5653   -3.5117    0.0000 H   0  0  0  0  0  0  0  0  0  0  0  0
    3.0727    0.6226    0.0000 H   0  0  0  0  0  0  0  0  0  0  0  0
   10.0793   -1.3917    0.0000 H   0  0  0  0  0  0  0  0  0  0  0  0
    4.1381    1.0964    0.0000 H   0  0  0  0  0  0  0  0  0  0  0  0
   10.9100   -0.1022    0.0000 H   0  0  0  0  0  0  0  0  0  0  0  0
   10.1154   -0.4728    0.0000 H   0  0  0  0  0  0  0  0  0  0  0  0
   10.4859   -1.2674    0.0000 H   0  0  0  0  0  0  0  0  0  0  0  0
    4.2072    3.0637    0.0000 H   0  0  0  0  0  0  0  0  0  0  0  0
    3.3972    3.3992    0.0000 H   0  0  0  0  0  0  0  0  0  0  0  0
    3.0616    2.5892    0.0000 H   0  0  0  0  0  0  0  0  0  0  0  0
    4.3462   -1.3217    0.0000 H   0  0  0  0  0  0  0  0  0  0  0  0
    9.2133   -3.1317    0.0000 H   0  0  0  0  0  0  0  0  0  0  0  0
    6.1477   -0.0367    0.0000 H   0  0  0  0  0  0  0  0  0  0  0  0
    5.3506   -0.0367    0.0000 H   0  0  0  0  0  0  0  0  0  0  0  0
    2.0000    1.7324    0.0000 H   0  0  0  0  0  0  0  0  0  0  0  0
    6.6152   -0.3917    0.0000 H   0  0  0  0  0  0  0  0  0  0  0  0
    4.2631   -2.0117    0.0000 H   0  0  0  0  0  0  0  0  0  0  0  0
    4.8831   -2.6317    0.0000 H   0  0  0  0  0  0  0  0  0  0  0  0
    5.5031   -2.0117    0.0000 H   0  0  0  0  0  0  0  0  0  0  0  0
    8.3472   -1.3917    0.0000 H   0  0  0  0  0  0  0  0  0  0  0  0
    6.0782   -2.3217    0.0000 H   0  0  0  0  0  0  0  0  0  0  0  0
    7.7912   -1.0486    0.0000 H   0  0  0  0  0  0  0  0  0  0  0  0
    8.0181   -0.2017    0.0000 H   0  0  0  0  0  0  0  0  0  0  0  0
    7.1712    0.0253    0.0000 H   0  0  0  0  0  0  0  0  0  0  0  0
    7.4812   -3.1317    0.0000 H   0  0  0  0  0  0  0  0  0  0  0  0
    5.3569   -0.2296    0.0000 H   0  0  0  0  0  0  0  0  0  0  0  0
    6.2262   -0.1152    0.0000 H   0  0  0  0  0  0  0  0  0  0  0  0
    6.1118    0.7541    0.0000 H   0  0  0  0  0  0  0  0  0  0  0  0
 19  1  1  6  0  0  0
  1 38  1  0  0  0  0
 21  2  1  1  0  0  0
  2 85  1  0  0  0  0
  3 23  1  0  0  0  0
  3 33  1  0  0  0  0
  4 28  1  0  0  0  0
  4 29  1  0  0  0  0
 28  5  1  6  0  0  0
  5110  1  0  0  0  0
  6 33  2  0  0  0  0
  7 34  2  0  0  0  0
  8 40  2  0  0  0  0
 44  9  1  1  0  0  0
  9 53  1  0  0  0  0
 10 41  2  0  0  0  0
 49 11  1  6  0  0  0
 11131  1  0  0  0  0
 52 12  1  1  0  0  0
 12 65  1  0  0  0  0
 13 56  2  0  0  0  0
 14 27  1  0  0  0  0
 14 35  1  0  0  0  0
 14 41  1  0  0  0  0
 15 16  1  0  0  0  0
 15 17  1  0  0  0  0
 15 18  1  6  0  0  0
 15 66  1  0  0  0  0
 16 19  1  0  0  0  0
 16 67  1  0  0  0  0
 16 68  1  0  0  0  0
 17 20  1  0  0  0  0
 17 69  1  0  0  0  0
 17 70  1  0  0  0  0
 18 22  1  0  0  0  0
 18 71  1  0  0  0  0
 18 72  1  0  0  0  0
 19 21  1  0  0  0  0
 19 73  1  0  0  0  0
 20 21  1  0  0  0  0
 20 74  1  0  0  0  0
 20 75  1  0  0  0  0
 21 76  1  0  0  0  0
 22 23  1  0  0  0  0
 22 24  1  1  0  0  0
 22 77  1  0  0  0  0
 23 25  1  0  0  0  0
 23 78  1  1  0  0  0
 24 79  1  0  0  0  0
 24 80  1  0  0  0  0
 24 81  1  0  0  0  0
 25 34  1  0  0  0  0
 25 82  1  0  0  0  0
 25 83  1  0  0  0  0
 26 28  1  0  0  0  0
 26 30  1  0  0  0  0
 26 42  1  6  0  0  0
 26 84  1  0  0  0  0
 27 32  1  0  0  0  0
 27 33  1  0  0  0  0
 27 86  1  1  0  0  0
 28 40  1  0  0  0  0
 29 31  1  0  0  0  0
 29 39  1  0  0  0  0
 29 87  1  6  0  0  0
 30 31  1  0  0  0  0
 30 88  1  0  0  0  0
 30 89  1  0  0  0  0
 31 90  1  0  0  0  0
 31 91  1  0  0  0  0
 32 36  1  0  0  0  0
 32 92  1  0  0  0  0
 32 93  1  0  0  0  0
 34 43  1  0  0  0  0
 35 37  1  0  0  0  0
 35 94  1  0  0  0  0
 35 95  1  0  0  0  0
 36 37  1  0  0  0  0
 36 96  1  0  0  0  0
 36 97  1  0  0  0  0
 37 98  1  0  0  0  0
 37 99  1  0  0  0  0
 38102  1  0  0  0  0
 38103  1  0  0  0  0
 38104  1  0  0  0  0
 39 44  1  0  0  0  0
 39100  1  0  0  0  0
 39101  1  0  0  0  0
 40 41  1  0  0  0  0
 42105  1  0  0  0  0
 42106  1  0  0  0  0
 42107  1  0  0  0  0
 43 45  1  1  0  0  0
 43 46  1  0  0  0  0
 43108  1  0  0  0  0
 44 47  1  0  0  0  0
 44109  1  0  0  0  0
 45111  1  0  0  0  0
 45112  1  0  0  0  0
 45113  1  0  0  0  0
 46 48  2  0  0  0  0
 46114  1  0  0  0  0
 47 50  1  0  0  0  0
 47 51  2  0  0  0  0
 48 49  1  0  0  0  0
 48 54  1  0  0  0  0
 49 52  1  0  0  0  0
 49118  1  0  0  0  0
 50115  1  0  0  0  0
 50116  1  0  0  0  0
 50117  1  0  0  0  0
 51 57  1  0  0  0  0
 51119  1  0  0  0  0
 52 56  1  0  0  0  0
 52120  1  0  0  0  0
 53121  1  0  0  0  0
 53122  1  0  0  0  0
 53123  1  0  0  0  0
 54124  1  0  0  0  0
 54125  1  0  0  0  0
 54126  1  0  0  0  0
 55 56  1  0  0  0  0
 55 58  1  0  0  0  0
 55 60  1  1  0  0  0
 55127  1  0  0  0  0
 57 61  2  0  0  0  0
 57128  1  0  0  0  0
 58 59  1  0  0  0  0
 58129  1  0  0  0  0
 58130  1  0  0  0  0
 59 62  1  0  0  0  0
 59 63  1  6  0  0  0
 59132  1  0  0  0  0
 60133  1  0  0  0  0
 60134  1  0  0  0  0
 60135  1  0  0  0  0
 61 64  1  0  0  0  0
 61136  1  0  0  0  0
 62 64  2  0  0  0  0
 62137  1  0  0  0  0
 63138  1  0  0  0  0
 63139  1  0  0  0  0
 63140  1  0  0  0  0
 64141  1  0  0  0  0
 65142  1  0  0  0  0
 65143  1  0  0  0  0
 65144  1  0  0  0  0
M  END
> <PUBCHEM_COMPOUND_CID>
5284616

> <PUBCHEM_COMPOUND_CANONICALIZED>
1

> <PUBCHEM_CACTVS_COMPLEXITY>
1760

> <PUBCHEM_CACTVS_HBOND_ACCEPTOR>
13

> <PUBCHEM_CACTVS_HBOND_DONOR>
3

> <PUBCHEM_CACTVS_ROTATABLE_BOND>
6

> <PUBCHEM_CACTVS_SUBSKEYS>
AAADcfB+PAAAAAAAAAAAAAAAAAAAAAAAAAA8SIAAAAAAAAAAAAAAHgAACAAADTzhgAYCCAMABgCIAqHSGAIAAAAgAAAICAHIAAgbFBYAoSQHUAAH5gCfsAOY6PSOAAAAAAAAAABAAAIAAACAAAAAAAAAAA==

> <PUBCHEM_IUPAC_OPENEYE_NAME>
(1R,9S,12S,15R,16E,18R,19R,21R,23S,24E,26E,28E,30S,32S,35R)-1,18-dihydroxy-12-[(1R)-2-[(1S,3R,4R)-4-hydroxy-3-methoxy-cyclohexyl]-1-methyl-ethyl]-19,30-dimethoxy-15,17,21,23,29,35-hexamethyl-11,36-dioxa-4-azatricyclo[30.3.1.04,9]hexatriaconta-16,24,26,28-tetraene-2,3,10,14,20-pentone

> <PUBCHEM_IUPAC_CAS_NAME>
(1R,9S,12S,15R,16E,18R,19R,21R,23S,24E,26E,28E,30S,32S,35R)-1,18-dihydroxy-12-[(2R)-1-[(1S,3R,4R)-4-hydroxy-3-methoxycyclohexyl]propan-2-yl]-19,30-dimethoxy-15,17,21,23,29,35-hexamethyl-11,36-dioxa-4-azatricyclo[30.3.1.04,9]hexatriaconta-16,24,26,28-tetraene-2,3,10,14,20-pentone

> <PUBCHEM_IUPAC_NAME_MARKUP>
(1<I>R</I>,9<I>S</I>,12<I>S</I>,15<I>R</I>,16<I>E</I>,18<I>R</I>,19<I>R</I>,21<I>R</I>,23<I>S</I>,24<I>E</I>,26<I>E</I>,28<I>E</I>,30<I>S</I>,32<I>S</I>,35<I>R</I>)-1,18-dihydroxy-12-[(2<I>R</I>)-1-[(1<I>S</I>,3<I>R</I>,4<I>R</I>)-4-hydroxy-3-methoxycyclohexyl]propan-2-yl]-19,30-dimethoxy-15,17,21,23,29,35-hexamethyl-11,36-dioxa-4-azatricyclo[30.3.1.0<SUP>4,9</SUP>]hexatriaconta-16,24,26,28-tetraene-2,3,10,14,20-pentone

> <PUBCHEM_IUPAC_NAME>
(1R,9S,12S,15R,16E,18R,19R,21R,23S,24E,26E,28E,30S,32S,35R)-1,18-dihydroxy-12-[(2R)-1-[(1S,3R,4R)-4-hydroxy-3-methoxycyclohexyl]propan-2-yl]-19,30-dimethoxy-15,17,21,23,29,35-hexamethyl-11,36-dioxa-4-azatricyclo[30.3.1.04,9]hexatriaconta-16,24,26,28-tetraene-2,3,10,14,20-pentone

> <PUBCHEM_IUPAC_SYSTEMATIC_NAME>
(1R,9S,12S,15R,16E,18R,19R,21R,23S,24E,26E,28E,30S,32S,35R)-19,30-dimethoxy-12-[(2R)-1-[(1S,3R,4R)-3-methoxy-4-oxidanyl-cyclohexyl]propan-2-yl]-15,17,21,23,29,35-hexamethyl-1,18-bis(oxidanyl)-11,36-dioxa-4-azatricyclo[30.3.1.04,9]hexatriaconta-16,24,26,28-tetraene-2,3,10,14,20-pentone

> <PUBCHEM_IUPAC_TRADITIONAL_NAME>
(1R,9S,12S,15R,16E,18R,19R,21R,23S,24E,26E,28E,30S,32S,35R)-1,18-dihydroxy-12-[(1R)-2-[(1S,3R,4R)-4-hydroxy-3-methoxy-cyclohexyl]-1-methyl-ethyl]-19,30-dimethoxy-15,17,21,23,29,35-hexamethyl-11,36-dioxa-4-azatricyclo[30.3.1.04,9]hexatriaconta-16,24,26,28-tetraene-2,3,10,14,20-pentone

> <PUBCHEM_IUPAC_INCHI>
InChI=1S/C51H79NO13/c1-30-16-12-11-13-17-31(2)42(61-8)28-38-21-19-36(7)51(60,65-38)48(57)49(58)52-23-15-14-18-39(52)50(59)64-43(33(4)26-37-20-22-40(53)44(27-37)62-9)29-41(54)32(3)25-35(6)46(56)47(63-10)45(55)34(5)24-30/h11-13,16-17,25,30,32-34,36-40,42-44,46-47,53,56,60H,14-15,18-24,26-29H2,1-10H3/b13-11+,16-12+,31-17+,35-25+/t30-,32-,33-,34-,36-,37+,38+,39+,40-,42+,43+,44-,46-,47+,51-/m1/s1

> <PUBCHEM_IUPAC_INCHIKEY>
QFJCIRLUMZQUOT-HPLJOQBZSA-N

> <PUBCHEM_XLOGP3_AA>
6

> <PUBCHEM_EXACT_MASS>
913.55514157

> <PUBCHEM_MOLECULAR_FORMULA>
C51H79NO13

> <PUBCHEM_MOLECULAR_WEIGHT>
914.2

> <PUBCHEM_OPENEYE_CAN_SMILES>
CC1CCC2CC(C(=CC=CC=CC(CC(C(=O)C(C(C(=CC(C(=O)CC(OC(=O)C3CCCCN3C(=O)C(=O)C1(O2)O)C(C)CC4CCC(C(C4)OC)O)C)C)O)OC)C)C)C)OC

> <PUBCHEM_OPENEYE_ISO_SMILES>
C[C@@H]1CC[C@H]2C[C@@H](/C(=C/C=C/C=C/[C@H](C[C@H](C(=O)[C@@H]([C@@H](/C(=C/[C@H](C(=O)C[C@H](OC(=O)[C@@H]3CCCCN3C(=O)C(=O)[C@@]1(O2)O)[C@H](C)C[C@@H]4CC[C@H]([C@@H](C4)OC)O)C)/C)O)OC)C)C)/C)OC

> <PUBCHEM_CACTVS_TPSA>
195

> <PUBCHEM_MONOISOTOPIC_WEIGHT>
913.55514157

> <PUBCHEM_TOTAL_CHARGE>
0

> <PUBCHEM_HEAVY_ATOM_COUNT>
65

> <PUBCHEM_ATOM_DEF_STEREO_COUNT>
15

> <PUBCHEM_ATOM_UDEF_STEREO_COUNT>
0

> <PUBCHEM_BOND_DEF_STEREO_COUNT>
4

> <PUBCHEM_BOND_UDEF_STEREO_COUNT>
0

> <PUBCHEM_ISOTOPIC_ATOM_COUNT>
0

> <PUBCHEM_COMPONENT_COUNT>
1

> <PUBCHEM_CACTVS_TAUTO_COUNT>
-1

> <PUBCHEM_COORDINATE_TYPE>
1
5
255

> <PUBCHEM_BONDANNOTATIONS>
19  1  6
49  11  6
52  12  5
15  18  6
21  2  5
22  24  5
23  78  5
26  42  6
27  86  5
29  87  6
43  45  5
28  5  6
55  60  5
59  63  6
44  9  5

$$$$
6918602
  -OEChem-03012215082D

 70 73  0     1  0  0  0  0  0999 V2000
   10.6165   -2.2754    0.0000 S   0  0  0  0  0  0  0  0  0  0  0  0
    9.6244    0.9407    0.0000 O   0  0  0  0  0  0  0  0  0  0  0  0
   11.1798   -1.4491    0.0000 O   0  0  0  0  0  0  0  0  0  0  0  0
   10.0531   -3.1016    0.0000 O   0  0  0  0  0  0  0  0  0  0  0  0
    9.2619    1.6672    0.0000 O   0  0  0  0  0  0  0  0  0  0  0  0
    4.6783    2.5945    0.0000 O   0  0  0  0  0  0  0  0  0  0  0  0
    6.7619    4.2652    0.0000 O   0  0  0  0  0  0  0  0  0  0  0  0
    9.7902   -1.7120    0.0000 N   0  0  3  0  0  0  0  0  0  0  0  0
    7.7619    0.8011    0.0000 N   0  0  0  0  0  0  0  0  0  0  0  0
    6.7619    2.5332    0.0000 N   0  0  0  0  0  0  0  0  0  0  0  0
   11.3680   -3.8359    0.0000 N   0  0  0  0  0  0  0  0  0  0  0  0
    8.9242   -2.2120    0.0000 C   0  0  1  0  0  0  0  0  0  0  0  0
    7.9933   -1.8467    0.0000 C   0  0  0  0  0  0  0  0  0  0  0  0
    7.6986   -0.8911    0.0000 C   0  0  0  0  0  0  0  0  0  0  0  0
    8.2619   -0.0649    0.0000 C   0  0  1  0  0  0  0  0  0  0  0  0
    9.9393   -0.7232    0.0000 C   0  0  0  0  0  0  0  0  0  0  0  0
    9.2591    0.0098    0.0000 C   0  0  0  0  0  0  0  0  0  0  0  0
    8.9989   -3.2092    0.0000 C   0  0  0  0  0  0  0  0  0  0  0  0
    7.7619    2.5332    0.0000 C   0  0  2  0  0  0  0  0  0  0  0  0
    8.2619    1.6672    0.0000 C   0  0  0  0  0  0  0  0  0  0  0  0
    8.2619    3.3992    0.0000 C   0  0  0  0  0  0  0  0  0  0  0  0
    9.2619    3.3992    0.0000 C   0  0  0  0  0  0  0  0  0  0  0  0
   11.4427   -2.8387    0.0000 C   0  0  0  0  0  0  0  0  0  0  0  0
    9.7619    4.2652    0.0000 C   0  0  0  0  0  0  0  0  0  0  0  0
    9.7619    2.5332    0.0000 C   0  0  0  0  0  0  0  0  0  0  0  0
   12.3437   -2.4048    0.0000 C   0  0  0  0  0  0  0  0  0  0  0  0
    6.2619    3.3992    0.0000 C   0  0  0  0  0  0  0  0  0  0  0  0
   13.1699   -2.9681    0.0000 C   0  0  0  0  0  0  0  0  0  0  0  0
    5.2619    3.3992    0.0000 C   0  0  0  0  0  0  0  0  0  0  0  0
   12.1942   -4.3992    0.0000 C   0  0  0  0  0  0  0  0  0  0  0  0
   13.0952   -3.9653    0.0000 C   0  0  0  0  0  0  0  0  0  0  0  0
    4.6783    4.2039    0.0000 C   0  0  0  0  0  0  0  0  0  0  0  0
    3.7320    3.8992    0.0000 C   0  0  0  0  0  0  0  0  0  0  0  0
    3.7320    2.8992    0.0000 C   0  0  0  0  0  0  0  0  0  0  0  0
    2.8660    4.3992    0.0000 C   0  0  0  0  0  0  0  0  0  0  0  0
    2.8660    2.3992    0.0000 C   0  0  0  0  0  0  0  0  0  0  0  0
    2.0000    3.8992    0.0000 C   0  0  0  0  0  0  0  0  0  0  0  0
    2.0000    2.8992    0.0000 C   0  0  0  0  0  0  0  0  0  0  0  0
    9.4723   -2.5018    0.0000 H   0  0  0  0  0  0  0  0  0  0  0  0
    7.3750   -1.8930    0.0000 H   0  0  0  0  0  0  0  0  0  0  0  0
    7.9009   -2.4598    0.0000 H   0  0  0  0  0  0  0  0  0  0  0  0
    7.2768   -0.4366    0.0000 H   0  0  0  0  0  0  0  0  0  0  0  0
    7.1616   -1.2011    0.0000 H   0  0  0  0  0  0  0  0  0  0  0  0
    8.5516    0.4833    0.0000 H   0  0  0  0  0  0  0  0  0  0  0  0
   10.5164   -0.9497    0.0000 H   0  0  0  0  0  0  0  0  0  0  0  0
   10.2885   -0.2109    0.0000 H   0  0  0  0  0  0  0  0  0  0  0  0
    8.3806   -3.2556    0.0000 H   0  0  0  0  0  0  0  0  0  0  0  0
    9.0452   -3.8275    0.0000 H   0  0  0  0  0  0  0  0  0  0  0  0
    9.6172   -3.1629    0.0000 H   0  0  0  0  0  0  0  0  0  0  0  0
    7.1419    0.8011    0.0000 H   0  0  0  0  0  0  0  0  0  0  0  0
    7.4519    1.9962    0.0000 H   0  0  0  0  0  0  0  0  0  0  0  0
    8.3695    4.0098    0.0000 H   0  0  0  0  0  0  0  0  0  0  0  0
    7.6793    3.6113    0.0000 H   0  0  0  0  0  0  0  0  0  0  0  0
    9.8819    3.3992    0.0000 H   0  0  0  0  0  0  0  0  0  0  0  0
    6.4519    1.9962    0.0000 H   0  0  0  0  0  0  0  0  0  0  0  0
   10.2988    3.9552    0.0000 H   0  0  0  0  0  0  0  0  0  0  0  0
   10.0719    4.8022    0.0000 H   0  0  0  0  0  0  0  0  0  0  0  0
    9.2249    4.5752    0.0000 H   0  0  0  0  0  0  0  0  0  0  0  0
    9.2249    2.2232    0.0000 H   0  0  0  0  0  0  0  0  0  0  0  0
   10.0719    1.9962    0.0000 H   0  0  0  0  0  0  0  0  0  0  0  0
   10.2988    2.8432    0.0000 H   0  0  0  0  0  0  0  0  0  0  0  0
   12.3900   -1.7865    0.0000 H   0  0  0  0  0  0  0  0  0  0  0  0
   13.7285   -2.6991    0.0000 H   0  0  0  0  0  0  0  0  0  0  0  0
   12.1479   -5.0175    0.0000 H   0  0  0  0  0  0  0  0  0  0  0  0
   13.6074   -4.3146    0.0000 H   0  0  0  0  0  0  0  0  0  0  0  0
    4.8709    4.7933    0.0000 H   0  0  0  0  0  0  0  0  0  0  0  0
    2.8660    5.0192    0.0000 H   0  0  0  0  0  0  0  0  0  0  0  0
    2.8660    1.7792    0.0000 H   0  0  0  0  0  0  0  0  0  0  0  0
    1.4631    4.2092    0.0000 H   0  0  0  0  0  0  0  0  0  0  0  0
    1.4631    2.5892    0.0000 H   0  0  0  0  0  0  0  0  0  0  0  0
  1  3  2  0  0  0  0
  1  4  2  0  0  0  0
  1  8  1  0  0  0  0
  1 23  1  0  0  0  0
  2 17  2  0  0  0  0
  5 20  2  0  0  0  0
  6 29  1  0  0  0  0
  6 34  1  0  0  0  0
  7 27  2  0  0  0  0
  8 12  1  0  0  0  0
  8 16  1  0  0  0  0
 15  9  1  6  0  0  0
  9 20  1  0  0  0  0
  9 50  1  0  0  0  0
 19 10  1  1  0  0  0
 10 27  1  0  0  0  0
 10 55  1  0  0  0  0
 11 23  1  0  0  0  0
 11 30  2  0  0  0  0
 12 13  1  0  0  0  0
 12 18  1  6  0  0  0
 12 39  1  0  0  0  0
 13 14  1  0  0  0  0
 13 40  1  0  0  0  0
 13 41  1  0  0  0  0
 14 15  1  0  0  0  0
 14 42  1  0  0  0  0
 14 43  1  0  0  0  0
 15 17  1  0  0  0  0
 15 44  1  0  0  0  0
 16 17  1  0  0  0  0
 16 45  1  0  0  0  0
 16 46  1  0  0  0  0
 18 47  1  0  0  0  0
 18 48  1  0  0  0  0
 18 49  1  0  0  0  0
 19 20  1  0  0  0  0
 19 21  1  0  0  0  0
 19 51  1  0  0  0  0
 21 22  1  0  0  0  0
 21 52  1  0  0  0  0
 21 53  1  0  0  0  0
 22 24  1  0  0  0  0
 22 25  1  0  0  0  0
 22 54  1  0  0  0  0
 23 26  2  0  0  0  0
 24 56  1  0  0  0  0
 24 57  1  0  0  0  0
 24 58  1  0  0  0  0
 25 59  1  0  0  0  0
 25 60  1  0  0  0  0
 25 61  1  0  0  0  0
 26 28  1  0  0  0  0
 26 62  1  0  0  0  0
 27 29  1  0  0  0  0
 28 31  2  0  0  0  0
 28 63  1  0  0  0  0
 29 32  2  0  0  0  0
 30 31  1  0  0  0  0
 30 64  1  0  0  0  0
 31 65  1  0  0  0  0
 32 33  1  0  0  0  0
 32 66  1  0  0  0  0
 33 34  1  0  0  0  0
 33 35  2  0  0  0  0
 34 36  2  0  0  0  0
 35 37  1  0  0  0  0
 35 67  1  0  0  0  0
 36 38  1  0  0  0  0
 36 68  1  0  0  0  0
 37 38  2  0  0  0  0
 37 69  1  0  0  0  0
 38 70  1  0  0  0  0
M  END
> <PUBCHEM_COMPOUND_CID>
6918602

> <PUBCHEM_COMPOUND_CANONICALIZED>
1

> <PUBCHEM_CACTVS_COMPLEXITY>
967

> <PUBCHEM_CACTVS_HBOND_ACCEPTOR>
8

> <PUBCHEM_CACTVS_HBOND_DONOR>
2

> <PUBCHEM_CACTVS_ROTATABLE_BOND>
8

> <PUBCHEM_CACTVS_SUBSKEYS>
AAADcfB7uABAAAAAAAAAAAAAAAAAASAAAAA8QAAABYAAAEgB/AAAHgQQQAAADSzB2gQ+h9LIFEKoArF3VHLK2DA1IiAI2Ln+bNgOZvLE9b+XOSjk1hHY6YeY36L+AAAAAAAIAAAAAAAAABAAAAAAAAAAAA==

> <PUBCHEM_IUPAC_OPENEYE_NAME>
N-[(1S)-3-methyl-1-[[(4S,7R)-7-methyl-3-oxo-1-(2-pyridylsulfonyl)azepan-4-yl]carbamoyl]butyl]benzofuran-2-carboxamide

> <PUBCHEM_IUPAC_CAS_NAME>
N-[(2S)-4-methyl-1-[[(4S,7R)-7-methyl-3-oxo-1-(2-pyridinylsulfonyl)-4-azepanyl]amino]-1-oxopentan-2-yl]-2-benzofurancarboxamide

> <PUBCHEM_IUPAC_NAME_MARKUP>
<I>N</I>-[(2<I>S</I>)-4-methyl-1-[[(4<I>S</I>,7<I>R</I>)-7-methyl-3-oxo-1-pyridin-2-ylsulfonylazepan-4-yl]amino]-1-oxopentan-2-yl]-1-benzofuran-2-carboxamide

> <PUBCHEM_IUPAC_NAME>
N-[(2S)-4-methyl-1-[[(4S,7R)-7-methyl-3-oxo-1-pyridin-2-ylsulfonylazepan-4-yl]amino]-1-oxopentan-2-yl]-1-benzofuran-2-carboxamide

> <PUBCHEM_IUPAC_SYSTEMATIC_NAME>
N-[(2S)-4-methyl-1-[[(4S,7R)-7-methyl-3-oxidanylidene-1-pyridin-2-ylsulfonyl-azepan-4-yl]amino]-1-oxidanylidene-pentan-2-yl]-1-benzofuran-2-carboxamide

> <PUBCHEM_IUPAC_TRADITIONAL_NAME>
N-[(1S)-1-[[(4S,7R)-3-keto-7-methyl-1-(2-pyridylsulfonyl)azepan-4-yl]carbamoyl]-3-methyl-butyl]coumarilamide

> <PUBCHEM_IUPAC_INCHI>
InChI=1S/C27H32N4O6S/c1-17(2)14-21(30-27(34)24-15-19-8-4-5-9-23(19)37-24)26(33)29-20-12-11-18(3)31(16-22(20)32)38(35,36)25-10-6-7-13-28-25/h4-10,13,15,17-18,20-21H,11-12,14,16H2,1-3H3,(H,29,33)(H,30,34)/t18-,20+,21+/m1/s1

> <PUBCHEM_IUPAC_INCHIKEY>
BWYBBMQLUKXECQ-GIVPXCGWSA-N

> <PUBCHEM_XLOGP3_AA>
3.9

> <PUBCHEM_EXACT_MASS>
540.20425593

> <PUBCHEM_MOLECULAR_FORMULA>
C27H32N4O6S

> <PUBCHEM_MOLECULAR_WEIGHT>
540.6

> <PUBCHEM_OPENEYE_CAN_SMILES>
CC1CCC(C(=O)CN1S(=O)(=O)C2=CC=CC=N2)NC(=O)C(CC(C)C)NC(=O)C3=CC4=CC=CC=C4O3

> <PUBCHEM_OPENEYE_ISO_SMILES>
C[C@@H]1CC[C@@H](C(=O)CN1S(=O)(=O)C2=CC=CC=N2)NC(=O)[C@H](CC(C)C)NC(=O)C3=CC4=CC=CC=C4O3

> <PUBCHEM_CACTVS_TPSA>
147

> <PUBCHEM_MONOISOTOPIC_WEIGHT>
540.20425593

> <PUBCHEM_TOTAL_CHARGE>
0

> <PUBCHEM_HEAVY_ATOM_COUNT>
38

> <PUBCHEM_ATOM_DEF_STEREO_COUNT>
3

> <PUBCHEM_ATOM_UDEF_STEREO_COUNT>
0

> <PUBCHEM_BOND_DEF_STEREO_COUNT>
0

> <PUBCHEM_BOND_UDEF_STEREO_COUNT>
0

> <PUBCHEM_ISOTOPIC_ATOM_COUNT>
0

> <PUBCHEM_COMPONENT_COUNT>
1

> <PUBCHEM_CACTVS_TAUTO_COUNT>
12

> <PUBCHEM_COORDINATE_TYPE>
1
5
255

> <PUBCHEM_BONDANNOTATIONS>
19  10  5
11  23  8
11  30  8
12  18  6
23  26  8
26  28  8
28  31  8
29  32  8
30  31  8
32  33  8
33  34  8
33  35  8
34  36  8
35  37  8
36  38  8
37  38  8
6  29  8
6  34  8
15  9  6

$$$$
25151504
  -OEChem-03012215082D

107111  0     1  0  0  0  0  0999 V2000
    9.6448    3.6239    0.0000 S   0  0  0  0  0  0  0  0  0  0  0  0
   11.5738   -1.6192    0.0000 S   0  0  0  0  0  0  0  0  0  0  0  0
    2.0000    2.7875    0.0000 O   0  0  0  0  0  0  0  0  0  0  0  0
    6.3301   -1.7125    0.0000 O   0  0  0  0  0  0  0  0  0  0  0  0
    8.9282   -1.2125    0.0000 O   0  0  0  0  0  0  0  0  0  0  0  0
    5.4641    1.7875    0.0000 O   0  0  0  0  0  0  0  0  0  0  0  0
    7.1962   -1.2125    0.0000 O   0  0  0  0  0  0  0  0  0  0  0  0
    4.5981   -1.7125    0.0000 N   0  0  0  0  0  0  0  0  0  0  0  0
    3.7320    1.7875    0.0000 N   0  0  0  0  0  0  0  0  0  0  0  0
    8.0622   -2.7125    0.0000 N   0  0  0  0  0  0  0  0  0  0  0  0
    6.3301    0.2875    0.0000 N   0  0  0  0  0  0  0  0  0  0  0  0
    7.1962    1.7875    0.0000 N   0  0  0  0  0  0  0  0  0  0  0  0
    8.1667    4.2820    0.0000 N   0  0  0  0  0  0  0  0  0  0  0  0
   11.7429   -0.0101    0.0000 N   0  0  0  0  0  0  0  0  0  0  0  0
    4.5981   -2.7125    0.0000 C   0  0  2  0  0  0  0  0  0  0  0  0
    5.4641   -3.2125    0.0000 C   0  0  0  0  0  0  0  0  0  0  0  0
    6.3301   -2.7125    0.0000 C   0  0  0  0  0  0  0  0  0  0  0  0
    7.1962   -3.2125    0.0000 C   0  0  2  0  0  0  0  0  0  0  0  0
    5.4641   -0.2125    0.0000 C   0  0  1  0  0  0  0  0  0  0  0  0
    3.7320   -3.2125    0.0000 C   0  0  0  0  0  0  0  0  0  0  0  0
    4.5981    0.2875    0.0000 C   0  0  0  0  0  0  0  0  0  0  0  0
    4.5981    1.2875    0.0000 C   0  0  0  0  0  0  0  0  0  0  0  0
    7.1962   -4.2125    0.0000 C   0  0  0  0  0  0  0  0  0  0  0  0
    5.4641   -1.2125    0.0000 C   0  0  0  0  0  0  0  0  0  0  0  0
    3.7320    2.7875    0.0000 C   0  0  0  0  0  0  0  0  0  0  0  0
    2.8660    1.2875    0.0000 C   0  0  0  0  0  0  0  0  0  0  0  0
    3.7320   -4.2125    0.0000 C   0  0  0  0  0  0  0  0  0  0  0  0
    2.8660    3.2875    0.0000 C   0  0  0  0  0  0  0  0  0  0  0  0
    2.0000    1.7875    0.0000 C   0  0  0  0  0  0  0  0  0  0  0  0
    8.0622   -4.7125    0.0000 C   0  0  0  0  0  0  0  0  0  0  0  0
    4.5981   -4.7125    0.0000 C   0  0  0  0  0  0  0  0  0  0  0  0
    2.8660   -4.7125    0.0000 C   0  0  0  0  0  0  0  0  0  0  0  0
    6.3301    1.2875    0.0000 C   0  0  0  0  0  0  0  0  0  0  0  0
    8.0622   -1.7125    0.0000 C   0  0  0  0  0  0  0  0  0  0  0  0
    8.9282   -4.2125    0.0000 C   0  0  0  0  0  0  0  0  0  0  0  0
    8.0622   -5.7125    0.0000 C   0  0  0  0  0  0  0  0  0  0  0  0
    4.5981   -5.7125    0.0000 C   0  0  0  0  0  0  0  0  0  0  0  0
    2.8660   -5.7125    0.0000 C   0  0  0  0  0  0  0  0  0  0  0  0
    3.7320   -6.2125    0.0000 C   0  0  0  0  0  0  0  0  0  0  0  0
    9.7942   -4.7125    0.0000 C   0  0  0  0  0  0  0  0  0  0  0  0
    8.9282   -6.2125    0.0000 C   0  0  0  0  0  0  0  0  0  0  0  0
    7.1962    2.7875    0.0000 C   0  0  0  0  0  0  0  0  0  0  0  0
    9.7942   -5.7125    0.0000 C   0  0  0  0  0  0  0  0  0  0  0  0
    8.0622    1.2875    0.0000 C   0  0  0  0  0  0  0  0  0  0  0  0
    8.0622    3.2875    0.0000 C   0  0  0  0  0  0  0  0  0  0  0  0
    9.7942   -1.7125    0.0000 C   0  0  0  0  0  0  0  0  0  0  0  0
    8.9757    2.8808    0.0000 C   0  0  0  0  0  0  0  0  0  0  0  0
    9.1448    4.4899    0.0000 C   0  0  0  0  0  0  0  0  0  0  0  0
    9.5516    5.4035    0.0000 C   0  0  0  0  0  0  0  0  0  0  0  0
   10.6603   -1.2125    0.0000 C   0  0  0  0  0  0  0  0  0  0  0  0
   10.5461    5.5080    0.0000 C   0  0  0  0  0  0  0  0  0  0  0  0
    8.9638    6.2125    0.0000 C   0  0  0  0  0  0  0  0  0  0  0  0
   10.7648   -0.2180    0.0000 C   0  0  0  0  0  0  0  0  0  0  0  0
   12.2429   -0.8761    0.0000 C   0  0  0  0  0  0  0  0  0  0  0  0
    5.1350   -2.4025    0.0000 H   0  0  0  0  0  0  0  0  0  0  0  0
    5.0656   -3.6874    0.0000 H   0  0  0  0  0  0  0  0  0  0  0  0
    5.8626   -3.6874    0.0000 H   0  0  0  0  0  0  0  0  0  0  0  0
    6.7287   -2.2376    0.0000 H   0  0  0  0  0  0  0  0  0  0  0  0
    5.9316   -2.2376    0.0000 H   0  0  0  0  0  0  0  0  0  0  0  0
    7.7331   -3.5225    0.0000 H   0  0  0  0  0  0  0  0  0  0  0  0
    5.4641    0.4075    0.0000 H   0  0  0  0  0  0  0  0  0  0  0  0
    3.5200   -2.6299    0.0000 H   0  0  0  0  0  0  0  0  0  0  0  0
    3.1215   -3.3202    0.0000 H   0  0  0  0  0  0  0  0  0  0  0  0
    3.9875    0.3952    0.0000 H   0  0  0  0  0  0  0  0  0  0  0  0
    4.3860   -0.2951    0.0000 H   0  0  0  0  0  0  0  0  0  0  0  0
    5.2087    1.1798    0.0000 H   0  0  0  0  0  0  0  0  0  0  0  0
    4.8101    1.8701    0.0000 H   0  0  0  0  0  0  0  0  0  0  0  0
    4.0611   -1.4025    0.0000 H   0  0  0  0  0  0  0  0  0  0  0  0
    6.5856   -4.1048    0.0000 H   0  0  0  0  0  0  0  0  0  0  0  0
    6.9841   -4.7951    0.0000 H   0  0  0  0  0  0  0  0  0  0  0  0
    4.3426    2.6798    0.0000 H   0  0  0  0  0  0  0  0  0  0  0  0
    3.9441    3.3701    0.0000 H   0  0  0  0  0  0  0  0  0  0  0  0
    2.4675    0.8126    0.0000 H   0  0  0  0  0  0  0  0  0  0  0  0
    3.2646    0.8126    0.0000 H   0  0  0  0  0  0  0  0  0  0  0  0
    8.5991   -3.0225    0.0000 H   0  0  0  0  0  0  0  0  0  0  0  0
    3.2646    3.7624    0.0000 H   0  0  0  0  0  0  0  0  0  0  0  0
    2.4675    3.7624    0.0000 H   0  0  0  0  0  0  0  0  0  0  0  0
    1.3894    1.8952    0.0000 H   0  0  0  0  0  0  0  0  0  0  0  0
    1.7880    1.2049    0.0000 H   0  0  0  0  0  0  0  0  0  0  0  0
    6.8671   -0.0225    0.0000 H   0  0  0  0  0  0  0  0  0  0  0  0
    5.1350   -4.4025    0.0000 H   0  0  0  0  0  0  0  0  0  0  0  0
    2.3291   -4.4025    0.0000 H   0  0  0  0  0  0  0  0  0  0  0  0
    8.9282   -3.5925    0.0000 H   0  0  0  0  0  0  0  0  0  0  0  0
    7.5252   -6.0225    0.0000 H   0  0  0  0  0  0  0  0  0  0  0  0
    5.1350   -6.0225    0.0000 H   0  0  0  0  0  0  0  0  0  0  0  0
    2.3291   -6.0225    0.0000 H   0  0  0  0  0  0  0  0  0  0  0  0
    3.7320   -6.8325    0.0000 H   0  0  0  0  0  0  0  0  0  0  0  0
    6.9841    3.3701    0.0000 H   0  0  0  0  0  0  0  0  0  0  0  0
    6.5856    2.6798    0.0000 H   0  0  0  0  0  0  0  0  0  0  0  0
   10.3312   -4.4025    0.0000 H   0  0  0  0  0  0  0  0  0  0  0  0
    8.9282   -6.8325    0.0000 H   0  0  0  0  0  0  0  0  0  0  0  0
   10.3312   -6.0225    0.0000 H   0  0  0  0  0  0  0  0  0  0  0  0
    7.7522    0.7506    0.0000 H   0  0  0  0  0  0  0  0  0  0  0  0
    8.5991    0.9775    0.0000 H   0  0  0  0  0  0  0  0  0  0  0  0
    8.3722    1.8244    0.0000 H   0  0  0  0  0  0  0  0  0  0  0  0
    9.3957   -2.1874    0.0000 H   0  0  0  0  0  0  0  0  0  0  0  0
   10.1928   -2.1874    0.0000 H   0  0  0  0  0  0  0  0  0  0  0  0
    9.1046    2.2743    0.0000 H   0  0  0  0  0  0  0  0  0  0  0  0
    9.9160    4.9019    0.0000 H   0  0  0  0  0  0  0  0  0  0  0  0
   10.6109    4.8914    0.0000 H   0  0  0  0  0  0  0  0  0  0  0  0
   11.1627    5.5728    0.0000 H   0  0  0  0  0  0  0  0  0  0  0  0
   10.4813    6.1246    0.0000 H   0  0  0  0  0  0  0  0  0  0  0  0
    9.4654    6.5769    0.0000 H   0  0  0  0  0  0  0  0  0  0  0  0
    8.5994    6.7141    0.0000 H   0  0  0  0  0  0  0  0  0  0  0  0
    8.4622    5.8481    0.0000 H   0  0  0  0  0  0  0  0  0  0  0  0
   10.3040    0.1969    0.0000 H   0  0  0  0  0  0  0  0  0  0  0  0
   12.8595   -0.9409    0.0000 H   0  0  0  0  0  0  0  0  0  0  0  0
  1 47  1  0  0  0  0
  1 48  1  0  0  0  0
  2 50  1  0  0  0  0
  2 54  1  0  0  0  0
  3 28  1  0  0  0  0
  3 29  1  0  0  0  0
  4 24  2  0  0  0  0
  5 34  1  0  0  0  0
  5 46  1  0  0  0  0
  6 33  2  0  0  0  0
  7 34  2  0  0  0  0
 15  8  1  6  0  0  0
  8 24  1  0  0  0  0
  8 68  1  0  0  0  0
  9 22  1  0  0  0  0
  9 25  1  0  0  0  0
  9 26  1  0  0  0  0
 18 10  1  1  0  0  0
 10 34  1  0  0  0  0
 10 75  1  0  0  0  0
 19 11  1  6  0  0  0
 11 33  1  0  0  0  0
 11 80  1  0  0  0  0
 12 33  1  0  0  0  0
 12 42  1  0  0  0  0
 12 44  1  0  0  0  0
 13 45  1  0  0  0  0
 13 48  2  0  0  0  0
 14 53  1  0  0  0  0
 14 54  2  0  0  0  0
 15 16  1  0  0  0  0
 15 20  1  0  0  0  0
 15 55  1  0  0  0  0
 16 17  1  0  0  0  0
 16 56  1  0  0  0  0
 16 57  1  0  0  0  0
 17 18  1  0  0  0  0
 17 58  1  0  0  0  0
 17 59  1  0  0  0  0
 18 23  1  0  0  0  0
 18 60  1  0  0  0  0
 19 21  1  0  0  0  0
 19 24  1  0  0  0  0
 19 61  1  0  0  0  0
 20 27  1  0  0  0  0
 20 62  1  0  0  0  0
 20 63  1  0  0  0  0
 21 22  1  0  0  0  0
 21 64  1  0  0  0  0
 21 65  1  0  0  0  0
 22 66  1  0  0  0  0
 22 67  1  0  0  0  0
 23 30  1  0  0  0  0
 23 69  1  0  0  0  0
 23 70  1  0  0  0  0
 25 28  1  0  0  0  0
 25 71  1  0  0  0  0
 25 72  1  0  0  0  0
 26 29  1  0  0  0  0
 26 73  1  0  0  0  0
 26 74  1  0  0  0  0
 27 31  2  0  0  0  0
 27 32  1  0  0  0  0
 28 76  1  0  0  0  0
 28 77  1  0  0  0  0
 29 78  1  0  0  0  0
 29 79  1  0  0  0  0
 30 35  2  0  0  0  0
 30 36  1  0  0  0  0
 31 37  1  0  0  0  0
 31 81  1  0  0  0  0
 32 38  2  0  0  0  0
 32 82  1  0  0  0  0
 35 40  1  0  0  0  0
 35 83  1  0  0  0  0
 36 41  2  0  0  0  0
 36 84  1  0  0  0  0
 37 39  2  0  0  0  0
 37 85  1  0  0  0  0
 38 39  1  0  0  0  0
 38 86  1  0  0  0  0
 39 87  1  0  0  0  0
 40 43  2  0  0  0  0
 40 90  1  0  0  0  0
 41 43  1  0  0  0  0
 41 91  1  0  0  0  0
 42 45  1  0  0  0  0
 42 88  1  0  0  0  0
 42 89  1  0  0  0  0
 43 92  1  0  0  0  0
 44 93  1  0  0  0  0
 44 94  1  0  0  0  0
 44 95  1  0  0  0  0
 45 47  2  0  0  0  0
 46 50  1  0  0  0  0
 46 96  1  0  0  0  0
 46 97  1  0  0  0  0
 47 98  1  0  0  0  0
 48 49  1  0  0  0  0
 49 51  1  0  0  0  0
 49 52  1  0  0  0  0
 49 99  1  0  0  0  0
 50 53  2  0  0  0  0
 51100  1  0  0  0  0
 51101  1  0  0  0  0
 51102  1  0  0  0  0
 52103  1  0  0  0  0
 52104  1  0  0  0  0
 52105  1  0  0  0  0
 53106  1  0  0  0  0
 54107  1  0  0  0  0
M  END
> <PUBCHEM_COMPOUND_CID>
25151504

> <PUBCHEM_COMPOUND_CANONICALIZED>
1

> <PUBCHEM_CACTVS_COMPLEXITY>
1120

> <PUBCHEM_CACTVS_HBOND_ACCEPTOR>
10

> <PUBCHEM_CACTVS_HBOND_DONOR>
3

> <PUBCHEM_CACTVS_ROTATABLE_BOND>
20

> <PUBCHEM_CACTVS_SUBSKEYS>
AAADcfB/uABgAAAAAAAAAAAAAAAAAWLAAAA8YIAAAAAAAAAB9AAAHgQQAAAADSjl3ga/iZPIFAisAzV3XACC8KBxCjhI2J24bImKZDLg8TmfIAgqlgL4qAcUgMAOAAAAAAAAAAAAAAAAAAAAAAAAAAAAAA==

> <PUBCHEM_IUPAC_OPENEYE_NAME>
thiazol-5-ylmethyl N-[(1R,4R)-1-benzyl-4-[[(2S)-2-[[(2-isopropylthiazol-4-yl)methyl-methyl-carbamoyl]amino]-4-morpholino-butanoyl]amino]-5-phenyl-pentyl]carbamate

> <PUBCHEM_IUPAC_CAS_NAME>
N-[(2R,5R)-5-[[(2S)-2-[[[methyl-[(2-propan-2-yl-4-thiazolyl)methyl]amino]-oxomethyl]amino]-4-(4-morpholinyl)-1-oxobutyl]amino]-1,6-diphenylhexan-2-yl]carbamic acid 5-thiazolylmethyl ester

> <PUBCHEM_IUPAC_NAME_MARKUP>
1,3-thiazol-5-ylmethyl <I>N</I>-[(2<I>R</I>,5<I>R</I>)-5-[[(2<I>S</I>)-2-[[methyl-[(2-propan-2-yl-1,3-thiazol-4-yl)methyl]carbamoyl]amino]-4-morpholin-4-ylbutanoyl]amino]-1,6-diphenylhexan-2-yl]carbamate

> <PUBCHEM_IUPAC_NAME>
1,3-thiazol-5-ylmethyl N-[(2R,5R)-5-[[(2S)-2-[[methyl-[(2-propan-2-yl-1,3-thiazol-4-yl)methyl]carbamoyl]amino]-4-morpholin-4-ylbutanoyl]amino]-1,6-diphenylhexan-2-yl]carbamate

> <PUBCHEM_IUPAC_SYSTEMATIC_NAME>
1,3-thiazol-5-ylmethyl N-[(2R,5R)-5-[[(2S)-2-[[methyl-[(2-propan-2-yl-1,3-thiazol-4-yl)methyl]carbamoyl]amino]-4-morpholin-4-yl-butanoyl]amino]-1,6-diphenyl-hexan-2-yl]carbamate

> <PUBCHEM_IUPAC_TRADITIONAL_NAME>
N-[(1R,4R)-1-benzyl-4-[[(2S)-2-[[(2-isopropylthiazol-4-yl)methyl-methyl-carbamoyl]amino]-4-morpholino-butanoyl]amino]-5-phenyl-pentyl]carbamic acid thiazol-5-ylmethyl ester

> <PUBCHEM_IUPAC_INCHI>
InChI=1S/C40H53N7O5S2/c1-29(2)38-43-34(27-53-38)25-46(3)39(49)45-36(16-17-47-18-20-51-21-19-47)37(48)42-32(22-30-10-6-4-7-11-30)14-15-33(23-31-12-8-5-9-13-31)44-40(50)52-26-35-24-41-28-54-35/h4-13,24,27-29,32-33,36H,14-23,25-26H2,1-3H3,(H,42,48)(H,44,50)(H,45,49)/t32-,33-,36+/m1/s1

> <PUBCHEM_IUPAC_INCHIKEY>
ZCIGNRJZKPOIKD-CQXVEOKZSA-N

> <PUBCHEM_XLOGP3_AA>
5.7

> <PUBCHEM_EXACT_MASS>
775.35496016

> <PUBCHEM_MOLECULAR_FORMULA>
C40H53N7O5S2

> <PUBCHEM_MOLECULAR_WEIGHT>
776.0

> <PUBCHEM_OPENEYE_CAN_SMILES>
CC(C)C1=NC(=CS1)CN(C)C(=O)NC(CCN2CCOCC2)C(=O)NC(CCC(CC3=CC=CC=C3)NC(=O)OCC4=CN=CS4)CC5=CC=CC=C5

> <PUBCHEM_OPENEYE_ISO_SMILES>
CC(C)C1=NC(=CS1)CN(C)C(=O)N[C@@H](CCN2CCOCC2)C(=O)N[C@H](CC[C@H](CC3=CC=CC=C3)NC(=O)OCC4=CN=CS4)CC5=CC=CC=C5

> <PUBCHEM_CACTVS_TPSA>
195

> <PUBCHEM_MONOISOTOPIC_WEIGHT>
775.35496016

> <PUBCHEM_TOTAL_CHARGE>
0

> <PUBCHEM_HEAVY_ATOM_COUNT>
54

> <PUBCHEM_ATOM_DEF_STEREO_COUNT>
3

> <PUBCHEM_ATOM_UDEF_STEREO_COUNT>
0

> <PUBCHEM_BOND_DEF_STEREO_COUNT>
0

> <PUBCHEM_BOND_UDEF_STEREO_COUNT>
0

> <PUBCHEM_ISOTOPIC_ATOM_COUNT>
0

> <PUBCHEM_COMPONENT_COUNT>
1

> <PUBCHEM_CACTVS_TAUTO_COUNT>
-1

> <PUBCHEM_COORDINATE_TYPE>
1
5
255

> <PUBCHEM_BONDANNOTATIONS>
1  47  8
1  48  8
18  10  5
19  11  6
13  45  8
13  48  8
14  53  8
14  54  8
2  50  8
2  54  8
27  31  8
27  32  8
30  35  8
30  36  8
31  37  8
32  38  8
35  40  8
36  41  8
37  39  8
38  39  8
40  43  8
41  43  8
45  47  8
50  53  8
15  8  6

$$$$
71481097
  -OEChem-03012215082D

 42 44  0     0  0  0  0  0  0999 V2000
    2.3660   -3.7633    0.0000 F   0  0  0  0  0  0  0  0  0  0  0  0
    2.0000   -5.1293    0.0000 F   0  0  0  0  0  0  0  0  0  0  0  0
    3.3660   -5.4953    0.0000 F   0  0  0  0  0  0  0  0  0  0  0  0
    7.1962   -5.1293    0.0000 F   0  0  0  0  0  0  0  0  0  0  0  0
    5.8301   -5.4953    0.0000 F   0  0  0  0  0  0  0  0  0  0  0  0
    6.8301   -3.7633    0.0000 F   0  0  0  0  0  0  0  0  0  0  0  0
    5.4993    0.9276    0.0000 O   0  0  0  0  0  0  0  0  0  0  0  0
    4.0981   -0.0905    0.0000 N   0  0  0  0  0  0  0  0  0  0  0  0
    3.7891   -1.0415    0.0000 N   0  0  0  0  0  0  0  0  0  0  0  0
    5.4071   -1.0415    0.0000 N   0  0  0  0  0  0  0  0  0  0  0  0
    5.3183    2.6502    0.0000 N   0  0  0  0  0  0  0  0  0  0  0  0
    6.3128    2.7547    0.0000 N   0  0  0  0  0  0  0  0  0  0  0  0
    7.7141    3.7728    0.0000 N   0  0  0  0  0  0  0  0  0  0  0  0
    6.5385    5.3908    0.0000 N   0  0  0  0  0  0  0  0  0  0  0  0
    4.5981   -2.6293    0.0000 C   0  0  0  0  0  0  0  0  0  0  0  0
    3.7320   -4.1293    0.0000 C   0  0  0  0  0  0  0  0  0  0  0  0
    5.4641   -4.1293    0.0000 C   0  0  0  0  0  0  0  0  0  0  0  0
    5.4641   -3.1293    0.0000 C   0  0  0  0  0  0  0  0  0  0  0  0
    3.7320   -3.1293    0.0000 C   0  0  0  0  0  0  0  0  0  0  0  0
    4.5981   -4.6293    0.0000 C   0  0  0  0  0  0  0  0  0  0  0  0
    4.5981   -1.6293    0.0000 C   0  0  0  0  0  0  0  0  0  0  0  0
    2.8660   -4.6293    0.0000 C   0  0  0  0  0  0  0  0  0  0  0  0
    6.3301   -4.6293    0.0000 C   0  0  0  0  0  0  0  0  0  0  0  0
    5.0981   -0.0905    0.0000 C   0  0  0  0  0  0  0  0  0  0  0  0
    3.5103    0.7186    0.0000 C   0  0  0  0  0  0  0  0  0  0  0  0
    3.9170    1.6321    0.0000 C   0  0  0  0  0  0  0  0  0  0  0  0
    4.9116    1.7366    0.0000 C   0  0  0  0  0  0  0  0  0  0  0  0
    6.7195    3.6682    0.0000 C   0  0  0  0  0  0  0  0  0  0  0  0
    6.1318    4.4773    0.0000 C   0  0  0  0  0  0  0  0  0  0  0  0
    8.1208    4.6863    0.0000 C   0  0  0  0  0  0  0  0  0  0  0  0
    7.5330    5.4953    0.0000 C   0  0  0  0  0  0  0  0  0  0  0  0
    6.0010   -2.8193    0.0000 H   0  0  0  0  0  0  0  0  0  0  0  0
    3.1951   -2.8193    0.0000 H   0  0  0  0  0  0  0  0  0  0  0  0
    4.5981   -5.2493    0.0000 H   0  0  0  0  0  0  0  0  0  0  0  0
    5.4625    0.4111    0.0000 H   0  0  0  0  0  0  0  0  0  0  0  0
    2.8937    0.6537    0.0000 H   0  0  0  0  0  0  0  0  0  0  0  0
    3.5526    2.1337    0.0000 H   0  0  0  0  0  0  0  0  0  0  0  0
    4.9539    3.1518    0.0000 H   0  0  0  0  0  0  0  0  0  0  0  0
    6.6772    2.2531    0.0000 H   0  0  0  0  0  0  0  0  0  0  0  0
    5.5152    4.4124    0.0000 H   0  0  0  0  0  0  0  0  0  0  0  0
    8.7374    4.7511    0.0000 H   0  0  0  0  0  0  0  0  0  0  0  0
    7.7852    6.0617    0.0000 H   0  0  0  0  0  0  0  0  0  0  0  0
  1 22  1  0  0  0  0
  2 22  1  0  0  0  0
  3 22  1  0  0  0  0
  4 23  1  0  0  0  0
  5 23  1  0  0  0  0
  6 23  1  0  0  0  0
  7 27  2  0  0  0  0
  8  9  1  0  0  0  0
  8 24  1  0  0  0  0
  8 25  1  0  0  0  0
  9 21  2  0  0  0  0
 10 21  1  0  0  0  0
 10 24  2  0  0  0  0
 11 12  1  0  0  0  0
 11 27  1  0  0  0  0
 11 38  1  0  0  0  0
 12 28  1  0  0  0  0
 12 39  1  0  0  0  0
 13 28  2  0  0  0  0
 13 30  1  0  0  0  0
 14 29  2  0  0  0  0
 14 31  1  0  0  0  0
 15 18  2  0  0  0  0
 15 19  1  0  0  0  0
 15 21  1  0  0  0  0
 16 19  2  0  0  0  0
 16 20  1  0  0  0  0
 16 22  1  0  0  0  0
 17 18  1  0  0  0  0
 17 20  2  0  0  0  0
 17 23  1  0  0  0  0
 18 32  1  0  0  0  0
 19 33  1  0  0  0  0
 20 34  1  0  0  0  0
 24 35  1  0  0  0  0
 25 26  2  0  0  0  0
 25 36  1  0  0  0  0
 26 27  1  0  0  0  0
 26 37  1  0  0  0  0
 28 29  1  0  0  0  0
 29 40  1  0  0  0  0
 30 31  2  0  0  0  0
 30 41  1  0  0  0  0
 31 42  1  0  0  0  0
M  END
> <PUBCHEM_COMPOUND_CID>
71481097

> <PUBCHEM_COMPOUND_CANONICALIZED>
1

> <PUBCHEM_CACTVS_COMPLEXITY>
621

> <PUBCHEM_CACTVS_HBOND_ACCEPTOR>
12

> <PUBCHEM_CACTVS_HBOND_DONOR>
2

> <PUBCHEM_CACTVS_ROTATABLE_BOND>
5

> <PUBCHEM_CACTVS_SUBSKEYS>
AAADccB7ocAAAAAAAAAAAAAAAAAAAWAAAAA8QAAAAAAAAAAB8AAAHwAYAAAADADBmxQ9sJZqEACqAjN3dACShC8xkqIf6CA4NNiIaOKAmRGUIAhomAKIiOcQgEAOAAACAAAAAAAAAAQAAAAAAAAAAAAAAA==

> <PUBCHEM_IUPAC_OPENEYE_NAME>
(Z)-3-[3-[3,5-bis(trifluoromethyl)phenyl]-1,2,4-triazol-1-yl]-N'-pyrazin-2-yl-prop-2-enehydrazide

> <PUBCHEM_IUPAC_CAS_NAME>
(Z)-3-[3-[3,5-bis(trifluoromethyl)phenyl]-1,2,4-triazol-1-yl]-N'-(2-pyrazinyl)-2-propenehydrazide

> <PUBCHEM_IUPAC_NAME_MARKUP>
(<I>Z</I>)-3-[3-[3,5-bis(trifluoromethyl)phenyl]-1,2,4-triazol-1-yl]-<I>N</I>&apos;-pyrazin-2-ylprop-2-enehydrazide

> <PUBCHEM_IUPAC_NAME>
(Z)-3-[3-[3,5-bis(trifluoromethyl)phenyl]-1,2,4-triazol-1-yl]-N'-pyrazin-2-ylprop-2-enehydrazide

> <PUBCHEM_IUPAC_SYSTEMATIC_NAME>
(Z)-3-[3-[3,5-bis(trifluoromethyl)phenyl]-1,2,4-triazol-1-yl]-N'-pyrazin-2-yl-prop-2-enehydrazide

> <PUBCHEM_IUPAC_TRADITIONAL_NAME>
(Z)-3-[3-[3,5-bis(trifluoromethyl)phenyl]-1,2,4-triazol-1-yl]-N'-pyrazin-2-yl-acrylohydrazide

> <PUBCHEM_IUPAC_INCHI>
InChI=1S/C17H11F6N7O/c18-16(19,20)11-5-10(6-12(7-11)17(21,22)23)15-26-9-30(29-15)4-1-14(31)28-27-13-8-24-2-3-25-13/h1-9H,(H,25,27)(H,28,31)/b4-1-

> <PUBCHEM_IUPAC_INCHIKEY>
DEVSOMFAQLZNKR-RJRFIUFISA-N

> <PUBCHEM_XLOGP3_AA>
3

> <PUBCHEM_EXACT_MASS>
443.09292697

> <PUBCHEM_MOLECULAR_FORMULA>
C17H11F6N7O

> <PUBCHEM_MOLECULAR_WEIGHT>
443.3

> <PUBCHEM_OPENEYE_CAN_SMILES>
C1=CN=C(C=N1)NNC(=O)C=CN2C=NC(=N2)C3=CC(=CC(=C3)C(F)(F)F)C(F)(F)F

> <PUBCHEM_OPENEYE_ISO_SMILES>
C1=CN=C(C=N1)NNC(=O)/C=C\N2C=NC(=N2)C3=CC(=CC(=C3)C(F)(F)F)C(F)(F)F

> <PUBCHEM_CACTVS_TPSA>
97.6

> <PUBCHEM_MONOISOTOPIC_WEIGHT>
443.09292697

> <PUBCHEM_TOTAL_CHARGE>
0

> <PUBCHEM_HEAVY_ATOM_COUNT>
31

> <PUBCHEM_ATOM_DEF_STEREO_COUNT>
0

> <PUBCHEM_ATOM_UDEF_STEREO_COUNT>
0

> <PUBCHEM_BOND_DEF_STEREO_COUNT>
1

> <PUBCHEM_BOND_UDEF_STEREO_COUNT>
0

> <PUBCHEM_ISOTOPIC_ATOM_COUNT>
0

> <PUBCHEM_COMPONENT_COUNT>
1

> <PUBCHEM_CACTVS_TAUTO_COUNT>
-1

> <PUBCHEM_COORDINATE_TYPE>
1
5
255

> <PUBCHEM_BONDANNOTATIONS>
10  21  8
10  24  8
13  28  8
13  30  8
14  29  8
14  31  8
15  18  8
15  19  8
16  19  8
16  20  8
17  18  8
17  20  8
28  29  8
30  31  8
8  24  8
8  9  8
9  21  8

$$$$
5496659
  -OEChem-03012215082D

 59 61  0     1  0  0  0  0  0999 V2000
    5.4641    0.4400    0.0000 O   0  0  0  0  0  0  0  0  0  0  0  0
    6.3301    1.9400    0.0000 O   0  0  0  0  0  0  0  0  0  0  0  0
    2.0000    0.4400    0.0000 O   0  0  0  0  0  0  0  0  0  0  0  0
    2.8660   -7.0600    0.0000 O   0  5  0  0  0  0  0  0  0  0  0  0
    3.7320    0.4400    0.0000 N   0  0  0  0  0  0  0  0  0  0  0  0
    7.1962    6.4400    0.0000 N   0  0  0  0  0  0  0  0  0  0  0  0
    5.4641    6.4400    0.0000 N   0  0  0  0  0  0  0  0  0  0  0  0
    2.8660   -6.0600    0.0000 N   0  3  0  0  0  0  0  0  0  0  0  0
    4.5981    1.9400    0.0000 C   0  0  1  0  0  0  0  0  0  0  0  0
    3.7320    1.4400    0.0000 C   0  0  1  0  0  0  0  0  0  0  0  0
    4.5981    2.9400    0.0000 C   0  0  0  0  0  0  0  0  0  0  0  0
    2.8660    1.9400    0.0000 C   0  0  0  0  0  0  0  0  0  0  0  0
    5.4641    3.4400    0.0000 C   0  0  0  0  0  0  0  0  0  0  0  0
    5.4641    1.4400    0.0000 C   0  0  0  0  0  0  0  0  0  0  0  0
    5.4641    4.4400    0.0000 C   0  0  0  0  0  0  0  0  0  0  0  0
    2.8660   -0.0600    0.0000 C   0  0  0  0  0  0  0  0  0  0  0  0
    6.3301    2.9400    0.0000 C   0  0  0  0  0  0  0  0  0  0  0  0
    6.3301    4.9400    0.0000 C   0  0  0  0  0  0  0  0  0  0  0  0
    2.8660   -1.0600    0.0000 C   0  0  0  0  0  0  0  0  0  0  0  0
    7.1962    3.4400    0.0000 C   0  0  0  0  0  0  0  0  0  0  0  0
    7.1962    4.4400    0.0000 C   0  0  0  0  0  0  0  0  0  0  0  0
    2.0000   -1.5600    0.0000 C   0  0  0  0  0  0  0  0  0  0  0  0
    3.7320   -1.5600    0.0000 C   0  0  0  0  0  0  0  0  0  0  0  0
    2.8660   -3.0600    0.0000 C   0  0  0  0  0  0  0  0  0  0  0  0
    6.3301    5.9400    0.0000 C   0  0  0  0  0  0  0  0  0  0  0  0
    6.3301   -0.0600    0.0000 C   0  0  0  0  0  0  0  0  0  0  0  0
    2.0000   -2.5600    0.0000 C   0  0  0  0  0  0  0  0  0  0  0  0
    3.7320   -2.5600    0.0000 C   0  0  0  0  0  0  0  0  0  0  0  0
    2.8660   -4.0600    0.0000 C   0  0  0  0  0  0  0  0  0  0  0  0
    3.7320   -4.5600    0.0000 C   0  0  0  0  0  0  0  0  0  0  0  0
    2.0000   -4.5600    0.0000 C   0  0  0  0  0  0  0  0  0  0  0  0
    3.7320   -5.5600    0.0000 C   0  0  0  0  0  0  0  0  0  0  0  0
    2.0000   -5.5600    0.0000 C   0  0  0  0  0  0  0  0  0  0  0  0
    5.1350    2.2500    0.0000 H   0  0  0  0  0  0  0  0  0  0  0  0
    4.2690    1.1300    0.0000 H   0  0  0  0  0  0  0  0  0  0  0  0
    4.3860    3.5226    0.0000 H   0  0  0  0  0  0  0  0  0  0  0  0
    3.9875    2.8323    0.0000 H   0  0  0  0  0  0  0  0  0  0  0  0
    3.1760    2.4769    0.0000 H   0  0  0  0  0  0  0  0  0  0  0  0
    2.3291    2.2500    0.0000 H   0  0  0  0  0  0  0  0  0  0  0  0
    2.5560    1.4031    0.0000 H   0  0  0  0  0  0  0  0  0  0  0  0
    4.2690    0.1300    0.0000 H   0  0  0  0  0  0  0  0  0  0  0  0
    4.9272    4.7500    0.0000 H   0  0  0  0  0  0  0  0  0  0  0  0
    6.3301    2.3200    0.0000 H   0  0  0  0  0  0  0  0  0  0  0  0
    7.7331    3.1300    0.0000 H   0  0  0  0  0  0  0  0  0  0  0  0
    7.7331    4.7500    0.0000 H   0  0  0  0  0  0  0  0  0  0  0  0
    1.4631   -1.2500    0.0000 H   0  0  0  0  0  0  0  0  0  0  0  0
    4.2690   -1.2500    0.0000 H   0  0  0  0  0  0  0  0  0  0  0  0
    6.0201   -0.5969    0.0000 H   0  0  0  0  0  0  0  0  0  0  0  0
    6.8671   -0.3700    0.0000 H   0  0  0  0  0  0  0  0  0  0  0  0
    6.6401    0.4769    0.0000 H   0  0  0  0  0  0  0  0  0  0  0  0
    1.4631   -2.8700    0.0000 H   0  0  0  0  0  0  0  0  0  0  0  0
    4.2690   -2.8700    0.0000 H   0  0  0  0  0  0  0  0  0  0  0  0
    4.2690   -4.2500    0.0000 H   0  0  0  0  0  0  0  0  0  0  0  0
    1.4631   -4.2500    0.0000 H   0  0  0  0  0  0  0  0  0  0  0  0
    7.1962    7.0600    0.0000 H   0  0  0  0  0  0  0  0  0  0  0  0
    7.7331    6.1300    0.0000 H   0  0  0  0  0  0  0  0  0  0  0  0
    5.4641    7.0600    0.0000 H   0  0  0  0  0  0  0  0  0  0  0  0
    4.2690   -5.8700    0.0000 H   0  0  0  0  0  0  0  0  0  0  0  0
    1.4631   -5.8700    0.0000 H   0  0  0  0  0  0  0  0  0  0  0  0
  1 14  1  0  0  0  0
  1 26  1  0  0  0  0
  2 14  2  0  0  0  0
  3 16  2  0  0  0  0
  4  8  1  0  0  0  0
 10  5  1  6  0  0  0
  5 16  1  0  0  0  0
  5 41  1  0  0  0  0
  6 25  1  0  0  0  0
  6 55  1  0  0  0  0
  6 56  1  0  0  0  0
  7 25  2  0  0  0  0
  7 57  1  0  0  0  0
  8 32  2  0  0  0  0
  8 33  1  0  0  0  0
  9 10  1  0  0  0  0
  9 11  1  1  0  0  0
  9 14  1  0  0  0  0
  9 34  1  0  0  0  0
 10 12  1  0  0  0  0
 10 35  1  0  0  0  0
 11 13  1  0  0  0  0
 11 36  1  0  0  0  0
 11 37  1  0  0  0  0
 12 38  1  0  0  0  0
 12 39  1  0  0  0  0
 12 40  1  0  0  0  0
 13 15  2  0  0  0  0
 13 17  1  0  0  0  0
 15 18  1  0  0  0  0
 15 42  1  0  0  0  0
 16 19  1  0  0  0  0
 17 20  2  0  0  0  0
 17 43  1  0  0  0  0
 18 21  2  0  0  0  0
 18 25  1  0  0  0  0
 19 22  2  0  0  0  0
 19 23  1  0  0  0  0
 20 21  1  0  0  0  0
 20 44  1  0  0  0  0
 21 45  1  0  0  0  0
 22 27  1  0  0  0  0
 22 46  1  0  0  0  0
 23 28  2  0  0  0  0
 23 47  1  0  0  0  0
 24 27  2  0  0  0  0
 24 28  1  0  0  0  0
 24 29  1  0  0  0  0
 26 48  1  0  0  0  0
 26 49  1  0  0  0  0
 26 50  1  0  0  0  0
 27 51  1  0  0  0  0
 28 52  1  0  0  0  0
 29 30  2  0  0  0  0
 29 31  1  0  0  0  0
 30 32  1  0  0  0  0
 30 53  1  0  0  0  0
 31 33  2  0  0  0  0
 31 54  1  0  0  0  0
 32 58  1  0  0  0  0
 33 59  1  0  0  0  0
M  END
> <PUBCHEM_COMPOUND_CID>
5496659

> <PUBCHEM_COMPOUND_CANONICALIZED>
1

> <PUBCHEM_CACTVS_COMPLEXITY>
671

> <PUBCHEM_CACTVS_HBOND_ACCEPTOR>
5

> <PUBCHEM_CACTVS_HBOND_DONOR>
3

> <PUBCHEM_CACTVS_ROTATABLE_BOND>
9

> <PUBCHEM_CACTVS_SUBSKEYS>
AAADceB7uAAAAAAAAAAAAAAAAAAAAAAAAAA8YIAAAAAAAAAB0AAAHgAUAAAADSjBmgY/iJLYFACoAjP3fACCgCC1AiAo2KE4ZNoIIPrAlZGEIQhmlgDIyYeYyOCOwAACAAAAAACAAAQAAAAAAAAAAAAAAA==

> <PUBCHEM_IUPAC_OPENEYE_NAME>
methyl (2R,3R)-2-[(3-carbamimidoylphenyl)methyl]-3-[[4-(1-oxidopyridin-1-ium-4-yl)benzoyl]amino]butanoate

> <PUBCHEM_IUPAC_CAS_NAME>
(2R,3R)-2-[(3-carbamimidoylphenyl)methyl]-3-[[[4-(1-oxido-4-pyridin-1-iumyl)phenyl]-oxomethyl]amino]butanoic acid methyl ester

> <PUBCHEM_IUPAC_NAME_MARKUP>
methyl (2<I>R</I>,3<I>R</I>)-2-[(3-carbamimidoylphenyl)methyl]-3-[[4-(1-oxidopyridin-1-ium-4-yl)benzoyl]amino]butanoate

> <PUBCHEM_IUPAC_NAME>
methyl (2R,3R)-2-[(3-carbamimidoylphenyl)methyl]-3-[[4-(1-oxidopyridin-1-ium-4-yl)benzoyl]amino]butanoate

> <PUBCHEM_IUPAC_SYSTEMATIC_NAME>
methyl (2R,3R)-2-[(3-carbamimidoylphenyl)methyl]-3-[[4-(1-oxidanidylpyridin-1-ium-4-yl)phenyl]carbonylamino]butanoate

> <PUBCHEM_IUPAC_TRADITIONAL_NAME>
(2R,3R)-2-(3-amidinobenzyl)-3-[[4-(1-oxidopyridin-1-ium-4-yl)benzoyl]amino]butyric acid methyl ester

> <PUBCHEM_IUPAC_INCHI>
InChI=1S/C25H26N4O4/c1-16(22(25(31)33-2)15-17-4-3-5-21(14-17)23(26)27)28-24(30)20-8-6-18(7-9-20)19-10-12-29(32)13-11-19/h3-14,16,22H,15H2,1-2H3,(H3,26,27)(H,28,30)/t16-,22-/m1/s1

> <PUBCHEM_IUPAC_INCHIKEY>
PFGVNLZDWRZPJW-OPAMFIHVSA-N

> <PUBCHEM_XLOGP3_AA>
2

> <PUBCHEM_EXACT_MASS>
446.19540532

> <PUBCHEM_MOLECULAR_FORMULA>
C25H26N4O4

> <PUBCHEM_MOLECULAR_WEIGHT>
446.5

> <PUBCHEM_OPENEYE_CAN_SMILES>
CC(C(CC1=CC(=CC=C1)C(=N)N)C(=O)OC)NC(=O)C2=CC=C(C=C2)C3=CC=[N+](C=C3)[O-]

> <PUBCHEM_OPENEYE_ISO_SMILES>
C[C@H]([C@@H](CC1=CC(=CC=C1)C(=N)N)C(=O)OC)NC(=O)C2=CC=C(C=C2)C3=CC=[N+](C=C3)[O-]

> <PUBCHEM_CACTVS_TPSA>
131

> <PUBCHEM_MONOISOTOPIC_WEIGHT>
446.19540532

> <PUBCHEM_TOTAL_CHARGE>
0

> <PUBCHEM_HEAVY_ATOM_COUNT>
33

> <PUBCHEM_ATOM_DEF_STEREO_COUNT>
2

> <PUBCHEM_ATOM_UDEF_STEREO_COUNT>
0

> <PUBCHEM_BOND_DEF_STEREO_COUNT>
0

> <PUBCHEM_BOND_UDEF_STEREO_COUNT>
0

> <PUBCHEM_ISOTOPIC_ATOM_COUNT>
0

> <PUBCHEM_COMPONENT_COUNT>
1

> <PUBCHEM_CACTVS_TAUTO_COUNT>
2

> <PUBCHEM_COORDINATE_TYPE>
1
5
255

> <PUBCHEM_BONDANNOTATIONS>
13  15  8
13  17  8
15  18  8
17  20  8
18  21  8
19  22  8
19  23  8
20  21  8
22  27  8
23  28  8
24  27  8
24  28  8
29  30  8
29  31  8
30  32  8
31  33  8
10  5  6
8  32  8
8  33  8
9  11  5

$$$$
2833
  -OEChem-03012215082D

 54 56  0     1  0  0  0  0  0999 V2000
    5.3788   -2.2731    0.0000 O   0  0  0  0  0  0  0  0  0  0  0  0
    7.0622   -3.4400    0.0000 O   0  0  0  0  0  0  0  0  0  0  0  0
    8.9077   -2.5513    0.0000 O   0  0  0  0  0  0  0  0  0  0  0  0
    2.2948   -0.5920    0.0000 O   0  0  0  0  0  0  0  0  0  0  0  0
    2.7031    1.2084    0.0000 O   0  0  0  0  0  0  0  0  0  0  0  0
    7.0052    3.0308    0.0000 O   0  0  0  0  0  0  0  0  0  0  0  0
    5.4447    2.2793    0.0000 N   0  0  0  0  0  0  0  0  0  0  0  0
    5.8786    1.3783    0.0000 C   0  0  3  0  0  0  0  0  0  0  0  0
    6.8786    1.3783    0.0000 C   0  0  0  0  0  0  0  0  0  0  0  0
    7.5021    0.5965    0.0000 C   0  0  0  0  0  0  0  0  0  0  0  0
    5.2551    0.5965    0.0000 C   0  0  0  0  0  0  0  0  0  0  0  0
    7.2796   -0.3784    0.0000 C   0  0  0  0  0  0  0  0  0  0  0  0
    6.3786   -0.8123    0.0000 C   0  0  0  0  0  0  0  0  0  0  0  0
    5.4776   -0.3784    0.0000 C   0  0  0  0  0  0  0  0  0  0  0  0
    6.2847   -1.8497    0.0000 C   0  0  0  0  0  0  0  0  0  0  0  0
    8.1491   -0.9519    0.0000 C   0  0  0  0  0  0  0  0  0  0  0  0
    4.3686    1.0161    0.0000 C   0  0  0  0  0  0  0  0  0  0  0  0
    4.8610   -1.1411    0.0000 C   0  0  0  0  0  0  0  0  0  0  0  0
    7.1408   -2.4431    0.0000 C   0  0  0  0  0  0  0  0  0  0  0  0
    8.0793   -1.9912    0.0000 C   0  0  0  0  0  0  0  0  0  0  0  0
    3.4866    0.5870    0.0000 C   0  0  0  0  0  0  0  0  0  0  0  0
    6.0080    3.1055    0.0000 C   0  0  0  0  0  0  0  0  0  0  0  0
    3.8802   -1.1372    0.0000 C   0  0  0  0  0  0  0  0  0  0  0  0
    3.2697   -0.3695    0.0000 C   0  0  0  0  0  0  0  0  0  0  0  0
    5.5741    4.0065    0.0000 C   0  0  0  0  0  0  0  0  0  0  0  0
    5.2926   -3.2694    0.0000 C   0  0  0  0  0  0  0  0  0  0  0  0
    7.8863   -4.0065    0.0000 C   0  0  0  0  0  0  0  0  0  0  0  0
    9.8070   -2.1139    0.0000 C   0  0  0  0  0  0  0  0  0  0  0  0
    2.0000   -1.5476    0.0000 C   0  0  0  0  0  0  0  0  0  0  0  0
    6.2084    1.9033    0.0000 H   0  0  0  0  0  0  0  0  0  0  0  0
    7.4372    1.6473    0.0000 H   0  0  0  0  0  0  0  0  0  0  0  0
    6.7406    1.9828    0.0000 H   0  0  0  0  0  0  0  0  0  0  0  0
    8.0607    0.3275    0.0000 H   0  0  0  0  0  0  0  0  0  0  0  0
    7.8886    1.0812    0.0000 H   0  0  0  0  0  0  0  0  0  0  0  0
    4.8264    2.3256    0.0000 H   0  0  0  0  0  0  0  0  0  0  0  0
    8.7046   -0.6764    0.0000 H   0  0  0  0  0  0  0  0  0  0  0  0
    4.3652    1.6361    0.0000 H   0  0  0  0  0  0  0  0  0  0  0  0
    5.1270   -1.7012    0.0000 H   0  0  0  0  0  0  0  0  0  0  0  0
    3.6097   -1.6950    0.0000 H   0  0  0  0  0  0  0  0  0  0  0  0
    6.1327    4.2755    0.0000 H   0  0  0  0  0  0  0  0  0  0  0  0
    5.3051    4.5651    0.0000 H   0  0  0  0  0  0  0  0  0  0  0  0
    5.0155    3.7375    0.0000 H   0  0  0  0  0  0  0  0  0  0  0  0
    4.6749   -3.2159    0.0000 H   0  0  0  0  0  0  0  0  0  0  0  0
    5.2391   -3.8871    0.0000 H   0  0  0  0  0  0  0  0  0  0  0  0
    5.9102   -3.3229    0.0000 H   0  0  0  0  0  0  0  0  0  0  0  0
    7.5351   -4.5174    0.0000 H   0  0  0  0  0  0  0  0  0  0  0  0
    8.3972   -4.3577    0.0000 H   0  0  0  0  0  0  0  0  0  0  0  0
    8.2375   -3.4956    0.0000 H   0  0  0  0  0  0  0  0  0  0  0  0
   10.0781   -2.6715    0.0000 H   0  0  0  0  0  0  0  0  0  0  0  0
   10.3646   -1.8428    0.0000 H   0  0  0  0  0  0  0  0  0  0  0  0
    9.5358   -1.5564    0.0000 H   0  0  0  0  0  0  0  0  0  0  0  0
    1.4075   -1.3649    0.0000 H   0  0  0  0  0  0  0  0  0  0  0  0
    1.8172   -2.1401    0.0000 H   0  0  0  0  0  0  0  0  0  0  0  0
    2.5925   -1.7304    0.0000 H   0  0  0  0  0  0  0  0  0  0  0  0
  1 15  1  0  0  0  0
  1 26  1  0  0  0  0
  2 19  1  0  0  0  0
  2 27  1  0  0  0  0
  3 20  1  0  0  0  0
  3 28  1  0  0  0  0
  4 24  1  0  0  0  0
  4 29  1  0  0  0  0
  5 21  2  0  0  0  0
  6 22  2  0  0  0  0
  7  8  1  0  0  0  0
  7 22  1  0  0  0  0
  7 35  1  0  0  0  0
  8  9  1  0  0  0  0
  8 11  1  0  0  0  0
  8 30  1  0  0  0  0
  9 10  1  0  0  0  0
  9 31  1  0  0  0  0
  9 32  1  0  0  0  0
 10 12  1  0  0  0  0
 10 33  1  0  0  0  0
 10 34  1  0  0  0  0
 11 14  1  0  0  0  0
 11 17  2  0  0  0  0
 12 13  1  0  0  0  0
 12 16  2  0  0  0  0
 13 14  1  0  0  0  0
 13 15  2  0  0  0  0
 14 18  2  0  0  0  0
 15 19  1  0  0  0  0
 16 20  1  0  0  0  0
 16 36  1  0  0  0  0
 17 21  1  0  0  0  0
 17 37  1  0  0  0  0
 18 23  1  0  0  0  0
 18 38  1  0  0  0  0
 19 20  2  0  0  0  0
 21 24  1  0  0  0  0
 22 25  1  0  0  0  0
 23 24  2  0  0  0  0
 23 39  1  0  0  0  0
 25 40  1  0  0  0  0
 25 41  1  0  0  0  0
 25 42  1  0  0  0  0
 26 43  1  0  0  0  0
 26 44  1  0  0  0  0
 26 45  1  0  0  0  0
 27 46  1  0  0  0  0
 27 47  1  0  0  0  0
 27 48  1  0  0  0  0
 28 49  1  0  0  0  0
 28 50  1  0  0  0  0
 28 51  1  0  0  0  0
 29 52  1  0  0  0  0
 29 53  1  0  0  0  0
 29 54  1  0  0  0  0
M  END
> <PUBCHEM_COMPOUND_CID>
2833

> <PUBCHEM_COMPOUND_CANONICALIZED>
1

> <PUBCHEM_CACTVS_COMPLEXITY>
740

> <PUBCHEM_CACTVS_HBOND_ACCEPTOR>
6

> <PUBCHEM_CACTVS_HBOND_DONOR>
1

> <PUBCHEM_CACTVS_ROTATABLE_BOND>
5

> <PUBCHEM_CACTVS_SUBSKEYS>
AAADceB6OAAAAAAAAAAAAAAAAAAAAAAAAAAwAAAABggAAAABAAAAHgAQAAAADCzBmAYyBoLABACIAqFSEAKCCAAgIAAAiIBOiMgNJyKEsR6EMCIl1hWKqYeQ8P8OoAABCAAYQABAAAIQADCAAAAAAAAAAA==

> <PUBCHEM_IUPAC_OPENEYE_NAME>
N-(1,2,3,10-tetramethoxy-9-oxo-6,7-dihydro-5H-benzo[a]heptalen-7-yl)acetamide

> <PUBCHEM_IUPAC_CAS_NAME>
N-(1,2,3,10-tetramethoxy-9-oxo-6,7-dihydro-5H-benzo[a]heptalen-7-yl)acetamide

> <PUBCHEM_IUPAC_NAME_MARKUP>
<I>N</I>-(1,2,3,10-tetramethoxy-9-oxo-6,7-dihydro-5<I>H</I>-benzo[a]heptalen-7-yl)acetamide

> <PUBCHEM_IUPAC_NAME>
N-(1,2,3,10-tetramethoxy-9-oxo-6,7-dihydro-5H-benzo[a]heptalen-7-yl)acetamide

> <PUBCHEM_IUPAC_SYSTEMATIC_NAME>
N-(1,2,3,10-tetramethoxy-9-oxidanylidene-6,7-dihydro-5H-benzo[a]heptalen-7-yl)ethanamide

> <PUBCHEM_IUPAC_TRADITIONAL_NAME>
N-(9-keto-1,2,3,10-tetramethoxy-6,7-dihydro-5H-benzo[a]heptalen-7-yl)acetamide

> <PUBCHEM_IUPAC_INCHI>
InChI=1S/C22H25NO6/c1-12(24)23-16-8-6-13-10-19(27-3)21(28-4)22(29-5)20(13)14-7-9-18(26-2)17(25)11-15(14)16/h7,9-11,16H,6,8H2,1-5H3,(H,23,24)

> <PUBCHEM_IUPAC_INCHIKEY>
IAKHMKGGTNLKSZ-UHFFFAOYSA-N

> <PUBCHEM_XLOGP3>
1

> <PUBCHEM_EXACT_MASS>
399.16818752

> <PUBCHEM_MOLECULAR_FORMULA>
C22H25NO6

> <PUBCHEM_MOLECULAR_WEIGHT>
399.4

> <PUBCHEM_OPENEYE_CAN_SMILES>
CC(=O)NC1CCC2=CC(=C(C(=C2C3=CC=C(C(=O)C=C13)OC)OC)OC)OC

> <PUBCHEM_OPENEYE_ISO_SMILES>
CC(=O)NC1CCC2=CC(=C(C(=C2C3=CC=C(C(=O)C=C13)OC)OC)OC)OC

> <PUBCHEM_CACTVS_TPSA>
83.1

> <PUBCHEM_MONOISOTOPIC_WEIGHT>
399.16818752

> <PUBCHEM_TOTAL_CHARGE>
0

> <PUBCHEM_HEAVY_ATOM_COUNT>
29

> <PUBCHEM_ATOM_DEF_STEREO_COUNT>
0

> <PUBCHEM_ATOM_UDEF_STEREO_COUNT>
1

> <PUBCHEM_BOND_DEF_STEREO_COUNT>
0

> <PUBCHEM_BOND_UDEF_STEREO_COUNT>
0

> <PUBCHEM_ISOTOPIC_ATOM_COUNT>
0

> <PUBCHEM_COMPONENT_COUNT>
1

> <PUBCHEM_CACTVS_TAUTO_COUNT>
-1

> <PUBCHEM_COORDINATE_TYPE>
1
5
255

> <PUBCHEM_BONDANNOTATIONS>
11  14  8
11  17  8
12  13  8
12  16  8
13  15  8
14  18  8
15  19  8
16  20  8
17  21  8
18  23  8
19  20  8
21  24  8
23  24  8
8  7  3

$$$$
4413
  -OEChem-03012215082D

 43 45  0     0  0  0  0  0  0999 V2000
    8.6651    0.5954    0.0000 O   0  0  0  0  0  0  0  0  0  0  0  0
    9.5369   -0.9013    0.0000 O   0  0  0  0  0  0  0  0  0  0  0  0
    2.5369   -0.9288    0.0000 N   0  0  0  0  0  0  0  0  0  0  0  0
    3.4030   -2.4288    0.0000 N   0  0  0  0  0  0  0  0  0  0  0  0
   12.9895    2.1121    0.0000 N   0  0  0  0  0  0  0  0  0  0  0  0
   14.7215    2.1188    0.0000 N   0  0  0  0  0  0  0  0  0  0  0  0
   13.8613    0.6154    0.0000 N   0  0  0  0  0  0  0  0  0  0  0  0
    6.0010   -0.9288    0.0000 C   0  0  0  0  0  0  0  0  0  0  0  0
    6.0010    0.0712    0.0000 C   0  0  0  0  0  0  0  0  0  0  0  0
    5.1350   -1.4288    0.0000 C   0  0  0  0  0  0  0  0  0  0  0  0
    6.8950    0.6059    0.0000 C   0  0  0  0  0  0  0  0  0  0  0  0
    4.2690   -0.9288    0.0000 C   0  0  0  0  0  0  0  0  0  0  0  0
    5.1350    0.5712    0.0000 C   0  0  0  0  0  0  0  0  0  0  0  0
    6.8950   -1.4634    0.0000 C   0  0  0  0  0  0  0  0  0  0  0  0
    7.8010    0.0921    0.0000 C   0  0  0  0  0  0  0  0  0  0  0  0
    4.2690    0.0712    0.0000 C   0  0  0  0  0  0  0  0  0  0  0  0
    7.8010   -0.9496    0.0000 C   0  0  0  0  0  0  0  0  0  0  0  0
    3.4030   -1.4288    0.0000 C   0  0  0  0  0  0  0  0  0  0  0  0
   10.3972    0.6021    0.0000 C   0  0  0  0  0  0  0  0  0  0  0  0
    9.5331    0.0987    0.0000 C   0  0  0  0  0  0  0  0  0  0  0  0
   10.3933    1.6021    0.0000 C   0  0  0  0  0  0  0  0  0  0  0  0
   11.2651    0.1054    0.0000 C   0  0  0  0  0  0  0  0  0  0  0  0
   12.1254    1.6087    0.0000 C   0  0  0  0  0  0  0  0  0  0  0  0
   11.2574    2.1054    0.0000 C   0  0  0  0  0  0  0  0  0  0  0  0
   12.1292    0.6088    0.0000 C   0  0  0  0  0  0  0  0  0  0  0  0
   13.8574    1.6154    0.0000 C   0  0  0  0  0  0  0  0  0  0  0  0
    5.1350   -2.0488    0.0000 H   0  0  0  0  0  0  0  0  0  0  0  0
    6.8878    1.2259    0.0000 H   0  0  0  0  0  0  0  0  0  0  0  0
    5.1350    1.1912    0.0000 H   0  0  0  0  0  0  0  0  0  0  0  0
    6.8878   -2.0834    0.0000 H   0  0  0  0  0  0  0  0  0  0  0  0
    3.7320    0.3812    0.0000 H   0  0  0  0  0  0  0  0  0  0  0  0
    8.3368   -1.2616    0.0000 H   0  0  0  0  0  0  0  0  0  0  0  0
    9.8552    1.9100    0.0000 H   0  0  0  0  0  0  0  0  0  0  0  0
   11.2675   -0.5146    0.0000 H   0  0  0  0  0  0  0  0  0  0  0  0
   11.2550    2.7254    0.0000 H   0  0  0  0  0  0  0  0  0  0  0  0
   12.6673    0.3008    0.0000 H   0  0  0  0  0  0  0  0  0  0  0  0
    2.0000   -1.2388    0.0000 H   0  0  0  0  0  0  0  0  0  0  0  0
    2.5369   -0.3088    0.0000 H   0  0  0  0  0  0  0  0  0  0  0  0
    2.8660   -2.7388    0.0000 H   0  0  0  0  0  0  0  0  0  0  0  0
   15.2596    1.8108    0.0000 H   0  0  0  0  0  0  0  0  0  0  0  0
   14.7191    2.7388    0.0000 H   0  0  0  0  0  0  0  0  0  0  0  0
   14.3994    0.3075    0.0000 H   0  0  0  0  0  0  0  0  0  0  0  0
   13.3255    0.3034    0.0000 H   0  0  0  0  0  0  0  0  0  0  0  0
  1 15  1  0  0  0  0
  1 20  1  0  0  0  0
  2 20  2  0  0  0  0
  3 18  1  0  0  0  0
  3 37  1  0  0  0  0
  3 38  1  0  0  0  0
  4 18  2  0  0  0  0
  4 39  1  0  0  0  0
  5 23  1  0  0  0  0
  5 26  2  0  0  0  0
  6 26  1  0  0  0  0
  6 40  1  0  0  0  0
  6 41  1  0  0  0  0
  7 26  1  0  0  0  0
  7 42  1  0  0  0  0
  7 43  1  0  0  0  0
  8  9  2  0  0  0  0
  8 10  1  0  0  0  0
  8 14  1  0  0  0  0
  9 11  1  0  0  0  0
  9 13  1  0  0  0  0
 10 12  2  0  0  0  0
 10 27  1  0  0  0  0
 11 15  2  0  0  0  0
 11 28  1  0  0  0  0
 12 16  1  0  0  0  0
 12 18  1  0  0  0  0
 13 16  2  0  0  0  0
 13 29  1  0  0  0  0
 14 17  2  0  0  0  0
 14 30  1  0  0  0  0
 15 17  1  0  0  0  0
 16 31  1  0  0  0  0
 17 32  1  0  0  0  0
 19 20  1  0  0  0  0
 19 21  2  0  0  0  0
 19 22  1  0  0  0  0
 21 24  1  0  0  0  0
 21 33  1  0  0  0  0
 22 25  2  0  0  0  0
 22 34  1  0  0  0  0
 23 24  2  0  0  0  0
 23 25  1  0  0  0  0
 24 35  1  0  0  0  0
 25 36  1  0  0  0  0
M  END
> <PUBCHEM_COMPOUND_CID>
4413

> <PUBCHEM_COMPOUND_CANONICALIZED>
1

> <PUBCHEM_CACTVS_COMPLEXITY>
552

> <PUBCHEM_CACTVS_HBOND_ACCEPTOR>
4

> <PUBCHEM_CACTVS_HBOND_DONOR>
4

> <PUBCHEM_CACTVS_ROTATABLE_BOND>
5

> <PUBCHEM_CACTVS_SUBSKEYS>
AAADceB7sAAAAAAAAAAAAAAAAAAAAAAAAAAwYMAAAAAAAADBVAAAHgAQAAAADAyBmAAxzsJABACoAibybACCCAGkIgAIiAEmbNgMJrKEtZuCOyDkwBEI6YeY2fGe6AADAAAQAADQAAYAACAAAAAAAAAAAA==

> <PUBCHEM_IUPAC_OPENEYE_NAME>
(6-carbamimidoyl-2-naphthyl) 4-guanidinobenzoate

> <PUBCHEM_IUPAC_CAS_NAME>
4-(diaminomethylideneamino)benzoic acid (6-carbamimidoyl-2-naphthalenyl) ester

> <PUBCHEM_IUPAC_NAME_MARKUP>
(6-carbamimidoylnaphthalen-2-yl) 4-(diaminomethylideneamino)benzoate

> <PUBCHEM_IUPAC_NAME>
(6-carbamimidoylnaphthalen-2-yl) 4-(diaminomethylideneamino)benzoate

> <PUBCHEM_IUPAC_SYSTEMATIC_NAME>
(6-carbamimidoylnaphthalen-2-yl) 4-[bis(azanyl)methylideneamino]benzoate

> <PUBCHEM_IUPAC_TRADITIONAL_NAME>
4-guanidinobenzoic acid (6-amidino-2-naphthyl) ester

> <PUBCHEM_IUPAC_INCHI>
InChI=1S/C19H17N5O2/c20-17(21)14-2-1-13-10-16(8-5-12(13)9-14)26-18(25)11-3-6-15(7-4-11)24-19(22)23/h1-10H,(H3,20,21)(H4,22,23,24)

> <PUBCHEM_IUPAC_INCHIKEY>
MQQNFDZXWVTQEH-UHFFFAOYSA-N

> <PUBCHEM_XLOGP3_AA>
2

> <PUBCHEM_EXACT_MASS>
347.13822480

> <PUBCHEM_MOLECULAR_FORMULA>
C19H17N5O2

> <PUBCHEM_MOLECULAR_WEIGHT>
347.4

> <PUBCHEM_OPENEYE_CAN_SMILES>
C1=CC(=CC=C1C(=O)OC2=CC3=C(C=C2)C=C(C=C3)C(=N)N)N=C(N)N

> <PUBCHEM_OPENEYE_ISO_SMILES>
C1=CC(=CC=C1C(=O)OC2=CC3=C(C=C2)C=C(C=C3)C(=N)N)N=C(N)N

> <PUBCHEM_CACTVS_TPSA>
141

> <PUBCHEM_MONOISOTOPIC_WEIGHT>
347.13822480

> <PUBCHEM_TOTAL_CHARGE>
0

> <PUBCHEM_HEAVY_ATOM_COUNT>
26

> <PUBCHEM_ATOM_DEF_STEREO_COUNT>
0

> <PUBCHEM_ATOM_UDEF_STEREO_COUNT>
0

> <PUBCHEM_BOND_DEF_STEREO_COUNT>
0

> <PUBCHEM_BOND_UDEF_STEREO_COUNT>
0

> <PUBCHEM_ISOTOPIC_ATOM_COUNT>
0

> <PUBCHEM_COMPONENT_COUNT>
1

> <PUBCHEM_CACTVS_TAUTO_COUNT>
-1

> <PUBCHEM_COORDINATE_TYPE>
1
5
255

> <PUBCHEM_BONDANNOTATIONS>
10  12  8
11  15  8
12  16  8
13  16  8
14  17  8
15  17  8
19  21  8
19  22  8
21  24  8
22  25  8
23  24  8
23  25  8
8  10  8
8  14  8
8  9  8
9  11  8
9  13  8

$$$$
3082475
  -OEChem-03012215082D

133135  0     1  0  0  0  0  0999 V2000
   10.0647    4.3655    0.0000 O   0  0  0  0  0  0  0  0  0  0  0  0
   10.7883    7.2202    0.0000 O   0  0  0  0  0  0  0  0  0  0  0  0
    9.3215    3.6964    0.0000 O   0  0  0  0  0  0  0  0  0  0  0  0
    7.3000    0.7109    0.0000 O   0  0  0  0  0  0  0  0  0  0  0  0
    7.3242    6.2202    0.0000 O   0  0  0  0  0  0  0  0  0  0  0  0
    8.1902    4.7202    0.0000 O   0  0  0  0  0  0  0  0  0  0  0  0
    6.5569    0.0417    0.0000 O   0  0  0  0  0  0  0  0  0  0  0  0
    3.3764   -1.6566    0.0000 O   0  0  0  0  0  0  0  0  0  0  0  0
    2.1289    4.2122    0.0000 O   0  0  0  0  0  0  0  0  0  0  0  0
    4.9512   -4.9001    0.0000 O   0  0  0  0  0  0  0  0  0  0  0  0
   11.7589    4.7256    0.0000 N   0  0  0  0  0  0  0  0  0  0  0  0
   10.4805    2.4092    0.0000 N   0  0  0  0  0  0  0  0  0  0  0  0
    9.9223    5.7202    0.0000 N   0  0  0  0  0  0  0  0  0  0  0  0
    7.8352    2.3581    0.0000 N   0  0  0  0  0  0  0  0  0  0  0  0
   13.2962    1.3845    0.0000 N   0  0  0  0  0  0  0  0  0  0  0  0
    5.3979    1.3289    0.0000 N   0  0  0  0  0  0  0  0  0  0  0  0
    5.0706   -1.2965    0.0000 N   0  0  0  0  0  0  0  0  0  0  0  0
   12.2135    0.1820    0.0000 N   0  0  0  0  0  0  0  0  0  0  0  0
    3.7922   -3.6129    0.0000 N   0  0  0  0  0  0  0  0  0  0  0  0
    6.8533   -5.5181    0.0000 N   0  0  0  0  0  0  0  0  0  0  0  0
    3.4649   -6.2384    0.0000 N   0  0  0  0  0  0  0  0  0  0  0  0
    8.0122   -6.8053    0.0000 N   0  0  0  0  0  0  0  0  0  0  0  0
    8.5475   -5.1580    0.0000 N   0  0  0  0  0  0  0  0  0  0  0  0
   11.6544    5.7202    0.0000 C   0  0  1  0  0  0  0  0  0  0  0  0
   12.5679    6.1269    0.0000 C   0  0  0  0  0  0  0  0  0  0  0  0
   13.2370    5.3838    0.0000 C   0  0  0  0  0  0  0  0  0  0  0  0
   12.7370    4.5177    0.0000 C   0  0  0  0  0  0  0  0  0  0  0  0
   11.0157    4.0565    0.0000 C   0  0  0  0  0  0  0  0  0  0  0  0
   11.2236    3.0784    0.0000 C   0  0  2  0  0  0  0  0  0  0  0  0
   10.7883    6.2202    0.0000 C   0  0  0  0  0  0  0  0  0  0  0  0
   12.1747    2.7694    0.0000 C   0  0  0  0  0  0  0  0  0  0  0  0
    8.7863    2.0491    0.0000 C   0  0  1  0  0  0  0  0  0  0  0  0
    8.9942    1.0710    0.0000 C   0  0  2  0  0  0  0  0  0  0  0  0
    9.5294    2.7182    0.0000 C   0  0  0  0  0  0  0  0  0  0  0  0
    9.0563    6.2202    0.0000 C   0  0  2  0  0  0  0  0  0  0  0  0
   12.3826    1.7912    0.0000 C   0  0  0  0  0  0  0  0  0  0  0  0
    8.2511    0.4018    0.0000 C   0  0  0  0  0  0  0  0  0  0  0  0
    9.9453    0.7620    0.0000 C   0  0  0  0  0  0  0  0  0  0  0  0
    6.1410    1.9980    0.0000 C   0  0  2  0  0  0  0  0  0  0  0  0
    7.0921    1.6890    0.0000 C   0  0  0  0  0  0  0  0  0  0  0  0
    8.4590   -0.5763    0.0000 C   0  0  0  0  0  0  0  0  0  0  0  0
    9.0563    7.2202    0.0000 C   0  0  0  0  0  0  0  0  0  0  0  0
   11.7135    1.0481    0.0000 C   0  0  0  0  0  0  0  0  0  0  0  0
    4.8627   -0.3184    0.0000 C   0  0  1  0  0  0  0  0  0  0  0  0
    5.9331    2.9762    0.0000 C   0  0  0  0  0  0  0  0  0  0  0  0
    8.1902    5.7202    0.0000 C   0  0  0  0  0  0  0  0  0  0  0  0
    3.9116   -0.0094    0.0000 C   0  0  0  0  0  0  0  0  0  0  0  0
    5.6058    0.3507    0.0000 C   0  0  0  0  0  0  0  0  0  0  0  0
   13.1916    0.3899    0.0000 C   0  0  0  0  0  0  0  0  0  0  0  0
    4.9821    3.2852    0.0000 C   0  0  0  0  0  0  0  0  0  0  0  0
    3.1685   -0.6785    0.0000 C   0  0  0  0  0  0  0  0  0  0  0  0
    3.7037    0.9688    0.0000 C   0  0  0  0  0  0  0  0  0  0  0  0
    4.5353   -2.9438    0.0000 C   0  0  2  0  0  0  0  0  0  0  0  0
    4.3274   -1.9657    0.0000 C   0  0  0  0  0  0  0  0  0  0  0  0
    5.4864   -3.2528    0.0000 C   0  0  0  0  0  0  0  0  0  0  0  0
    4.2389    2.6161    0.0000 C   0  0  0  0  0  0  0  0  0  0  0  0
    4.7742    4.2633    0.0000 C   0  0  0  0  0  0  0  0  0  0  0  0
    5.6943   -4.2310    0.0000 C   0  0  0  0  0  0  0  0  0  0  0  0
    3.2879    2.9251    0.0000 C   0  0  0  0  0  0  0  0  0  0  0  0
    3.8231    4.5724    0.0000 C   0  0  0  0  0  0  0  0  0  0  0  0
    6.6454   -4.5400    0.0000 C   0  0  0  0  0  0  0  0  0  0  0  0
    3.0800    3.9032    0.0000 C   0  0  0  0  0  0  0  0  0  0  0  0
    4.0001   -4.5911    0.0000 C   0  0  0  0  0  0  0  0  0  0  0  0
    3.2570   -5.2602    0.0000 C   0  0  0  0  0  0  0  0  0  0  0  0
    7.8043   -5.8272    0.0000 C   0  0  0  0  0  0  0  0  0  0  0  0
    2.7217   -6.9075    0.0000 C   0  0  0  0  0  0  0  0  0  0  0  0
   11.1344    5.3825    0.0000 H   0  0  0  0  0  0  0  0  0  0  0  0
   13.0695    6.4913    0.0000 H   0  0  0  0  0  0  0  0  0  0  0  0
   12.2579    6.6638    0.0000 H   0  0  0  0  0  0  0  0  0  0  0  0
   13.7386    5.0193    0.0000 H   0  0  0  0  0  0  0  0  0  0  0  0
   13.6519    5.8445    0.0000 H   0  0  0  0  0  0  0  0  0  0  0  0
   12.5454    3.9281    0.0000 H   0  0  0  0  0  0  0  0  0  0  0  0
   13.3034    4.2656    0.0000 H   0  0  0  0  0  0  0  0  0  0  0  0
   10.6340    3.2700    0.0000 H   0  0  0  0  0  0  0  0  0  0  0  0
   12.7943    2.7910    0.0000 H   0  0  0  0  0  0  0  0  0  0  0  0
   12.2610    3.3833    0.0000 H   0  0  0  0  0  0  0  0  0  0  0  0
    8.6574    2.6556    0.0000 H   0  0  0  0  0  0  0  0  0  0  0  0
   10.6094    1.8028    0.0000 H   0  0  0  0  0  0  0  0  0  0  0  0
    9.4550    1.4858    0.0000 H   0  0  0  0  0  0  0  0  0  0  0  0
    9.9223    5.1002    0.0000 H   0  0  0  0  0  0  0  0  0  0  0  0
    9.0563    5.6002    0.0000 H   0  0  0  0  0  0  0  0  0  0  0  0
    7.9225    0.9276    0.0000 H   0  0  0  0  0  0  0  0  0  0  0  0
    7.6762    0.1696    0.0000 H   0  0  0  0  0  0  0  0  0  0  0  0
    7.7063    2.9646    0.0000 H   0  0  0  0  0  0  0  0  0  0  0  0
    9.7537    0.1723    0.0000 H   0  0  0  0  0  0  0  0  0  0  0  0
   10.5349    0.5704    0.0000 H   0  0  0  0  0  0  0  0  0  0  0  0
   10.1369    1.3516    0.0000 H   0  0  0  0  0  0  0  0  0  0  0  0
    6.2700    1.3916    0.0000 H   0  0  0  0  0  0  0  0  0  0  0  0
    7.8525   -0.7052    0.0000 H   0  0  0  0  0  0  0  0  0  0  0  0
    8.5879   -1.1828    0.0000 H   0  0  0  0  0  0  0  0  0  0  0  0
    9.0654   -0.4474    0.0000 H   0  0  0  0  0  0  0  0  0  0  0  0
    9.6763    7.2202    0.0000 H   0  0  0  0  0  0  0  0  0  0  0  0
    9.0563    7.8402    0.0000 H   0  0  0  0  0  0  0  0  0  0  0  0
    8.4363    7.2202    0.0000 H   0  0  0  0  0  0  0  0  0  0  0  0
   13.8331    1.6945    0.0000 H   0  0  0  0  0  0  0  0  0  0  0  0
    5.4523   -0.5100    0.0000 H   0  0  0  0  0  0  0  0  0  0  0  0
   11.0969    1.1129    0.0000 H   0  0  0  0  0  0  0  0  0  0  0  0
    6.5527    2.9978    0.0000 H   0  0  0  0  0  0  0  0  0  0  0  0
    6.0194    3.5901    0.0000 H   0  0  0  0  0  0  0  0  0  0  0  0
    4.0405   -0.6158    0.0000 H   0  0  0  0  0  0  0  0  0  0  0  0
    4.8082    1.5205    0.0000 H   0  0  0  0  0  0  0  0  0  0  0  0
   13.6524   -0.0249    0.0000 H   0  0  0  0  0  0  0  0  0  0  0  0
    5.6602   -1.4881    0.0000 H   0  0  0  0  0  0  0  0  0  0  0  0
    2.7536   -0.2177    0.0000 H   0  0  0  0  0  0  0  0  0  0  0  0
    2.7077   -1.0934    0.0000 H   0  0  0  0  0  0  0  0  0  0  0  0
    3.5833   -1.1393    0.0000 H   0  0  0  0  0  0  0  0  0  0  0  0
    4.3102    1.0977    0.0000 H   0  0  0  0  0  0  0  0  0  0  0  0
    3.5748    1.5752    0.0000 H   0  0  0  0  0  0  0  0  0  0  0  0
    3.0972    0.8399    0.0000 H   0  0  0  0  0  0  0  0  0  0  0  0
    4.6642   -3.5503    0.0000 H   0  0  0  0  0  0  0  0  0  0  0  0
    6.1060   -3.2312    0.0000 H   0  0  0  0  0  0  0  0  0  0  0  0
    5.5727   -2.6389    0.0000 H   0  0  0  0  0  0  0  0  0  0  0  0
    6.7873    5.9102    0.0000 H   0  0  0  0  0  0  0  0  0  0  0  0
    4.3678    2.0096    0.0000 H   0  0  0  0  0  0  0  0  0  0  0  0
    5.2349    4.6782    0.0000 H   0  0  0  0  0  0  0  0  0  0  0  0
    5.0747   -4.2526    0.0000 H   0  0  0  0  0  0  0  0  0  0  0  0
    5.6080   -4.8449    0.0000 H   0  0  0  0  0  0  0  0  0  0  0  0
    3.2025   -3.4214    0.0000 H   0  0  0  0  0  0  0  0  0  0  0  0
    2.8271    2.5102    0.0000 H   0  0  0  0  0  0  0  0  0  0  0  0
    3.6942    5.1788    0.0000 H   0  0  0  0  0  0  0  0  0  0  0  0
    7.2650   -4.5184    0.0000 H   0  0  0  0  0  0  0  0  0  0  0  0
    6.7317   -3.9260    0.0000 H   0  0  0  0  0  0  0  0  0  0  0  0
    2.9284   -4.7344    0.0000 H   0  0  0  0  0  0  0  0  0  0  0  0
    2.6821   -5.4925    0.0000 H   0  0  0  0  0  0  0  0  0  0  0  0
    2.0000    4.8187    0.0000 H   0  0  0  0  0  0  0  0  0  0  0  0
    4.0545   -6.4300    0.0000 H   0  0  0  0  0  0  0  0  0  0  0  0
    2.3069   -6.4468    0.0000 H   0  0  0  0  0  0  0  0  0  0  0  0
    2.2610   -7.3224    0.0000 H   0  0  0  0  0  0  0  0  0  0  0  0
    3.1366   -7.3682    0.0000 H   0  0  0  0  0  0  0  0  0  0  0  0
    8.6019   -6.9969    0.0000 H   0  0  0  0  0  0  0  0  0  0  0  0
    7.5515   -7.2202    0.0000 H   0  0  0  0  0  0  0  0  0  0  0  0
    9.1371   -5.3496    0.0000 H   0  0  0  0  0  0  0  0  0  0  0  0
    8.4186   -4.5516    0.0000 H   0  0  0  0  0  0  0  0  0  0  0  0
  1 28  2  0  0  0  0
  2 30  2  0  0  0  0
  3 34  2  0  0  0  0
  4 40  2  0  0  0  0
  5 46  1  0  0  0  0
  5113  1  0  0  0  0
  6 46  2  0  0  0  0
  7 48  2  0  0  0  0
  8 54  2  0  0  0  0
  9 62  1  0  0  0  0
  9125  1  0  0  0  0
 10 63  2  0  0  0  0
 11 24  1  0  0  0  0
 11 27  1  0  0  0  0
 11 28  1  0  0  0  0
 29 12  1  6  0  0  0
 12 34  1  0  0  0  0
 12 78  1  0  0  0  0
 13 30  1  0  0  0  0
 35 13  1  1  0  0  0
 13 80  1  0  0  0  0
 32 14  1  6  0  0  0
 14 40  1  0  0  0  0
 14 84  1  0  0  0  0
 15 36  1  0  0  0  0
 15 49  1  0  0  0  0
 15 95  1  0  0  0  0
 39 16  1  1  0  0  0
 16 48  1  0  0  0  0
 16101  1  0  0  0  0
 44 17  1  1  0  0  0
 17 54  1  0  0  0  0
 17103  1  0  0  0  0
 18 43  1  0  0  0  0
 18 49  2  0  0  0  0
 53 19  1  6  0  0  0
 19 63  1  0  0  0  0
 19118  1  0  0  0  0
 20 61  1  0  0  0  0
 20 65  2  0  0  0  0
 21 64  1  0  0  0  0
 21 66  1  0  0  0  0
 21126  1  0  0  0  0
 22 65  1  0  0  0  0
 22130  1  0  0  0  0
 22131  1  0  0  0  0
 23 65  1  0  0  0  0
 23132  1  0  0  0  0
 23133  1  0  0  0  0
 24 25  1  0  0  0  0
 24 30  1  6  0  0  0
 24 67  1  0  0  0  0
 25 26  1  0  0  0  0
 25 68  1  0  0  0  0
 25 69  1  0  0  0  0
 26 27  1  0  0  0  0
 26 70  1  0  0  0  0
 26 71  1  0  0  0  0
 27 72  1  0  0  0  0
 27 73  1  0  0  0  0
 28 29  1  0  0  0  0
 29 31  1  0  0  0  0
 29 74  1  0  0  0  0
 31 36  1  0  0  0  0
 31 75  1  0  0  0  0
 31 76  1  0  0  0  0
 32 33  1  0  0  0  0
 32 34  1  0  0  0  0
 32 77  1  0  0  0  0
 33 37  1  0  0  0  0
 33 38  1  1  0  0  0
 33 79  1  0  0  0  0
 35 42  1  0  0  0  0
 35 46  1  0  0  0  0
 35 81  1  0  0  0  0
 36 43  2  0  0  0  0
 37 41  1  0  0  0  0
 37 82  1  0  0  0  0
 37 83  1  0  0  0  0
 38 85  1  0  0  0  0
 38 86  1  0  0  0  0
 38 87  1  0  0  0  0
 39 40  1  0  0  0  0
 39 45  1  0  0  0  0
 39 88  1  0  0  0  0
 41 89  1  0  0  0  0
 41 90  1  0  0  0  0
 41 91  1  0  0  0  0
 42 92  1  0  0  0  0
 42 93  1  0  0  0  0
 42 94  1  0  0  0  0
 43 97  1  0  0  0  0
 44 47  1  0  0  0  0
 44 48  1  0  0  0  0
 44 96  1  0  0  0  0
 45 50  1  0  0  0  0
 45 98  1  0  0  0  0
 45 99  1  0  0  0  0
 47 51  1  0  0  0  0
 47 52  1  0  0  0  0
 47100  1  0  0  0  0
 49102  1  0  0  0  0
 50 56  2  0  0  0  0
 50 57  1  0  0  0  0
 51104  1  0  0  0  0
 51105  1  0  0  0  0
 51106  1  0  0  0  0
 52107  1  0  0  0  0
 52108  1  0  0  0  0
 52109  1  0  0  0  0
 53 54  1  0  0  0  0
 53 55  1  0  0  0  0
 53110  1  0  0  0  0
 55 58  1  0  0  0  0
 55111  1  0  0  0  0
 55112  1  0  0  0  0
 56 59  1  0  0  0  0
 56114  1  0  0  0  0
 57 60  2  0  0  0  0
 57115  1  0  0  0  0
 58 61  1  0  0  0  0
 58116  1  0  0  0  0
 58117  1  0  0  0  0
 59 62  2  0  0  0  0
 59119  1  0  0  0  0
 60 62  1  0  0  0  0
 60120  1  0  0  0  0
 61121  1  0  0  0  0
 61122  1  0  0  0  0
 63 64  1  0  0  0  0
 64123  1  0  0  0  0
 64124  1  0  0  0  0
 66127  1  0  0  0  0
 66128  1  0  0  0  0
 66129  1  0  0  0  0
M  END
> <PUBCHEM_COMPOUND_CID>
3082475

> <PUBCHEM_COMPOUND_CANONICALIZED>
1

> <PUBCHEM_CACTVS_COMPLEXITY>
1690

> <PUBCHEM_CACTVS_HBOND_ACCEPTOR>
13

> <PUBCHEM_CACTVS_HBOND_DONOR>
12

> <PUBCHEM_CACTVS_ROTATABLE_BOND>
26

> <PUBCHEM_CACTVS_SUBSKEYS>
AAADcfB//AAAAAAAAAAAAAAAAAAAAWLAAAAwAAAAAAAAAAABwAAAHgAQCAAADSzBngQ/npfJkgCoAzX3fAACgC2xMqAJ2YG+eIiKbjLC2TOUcAAs1hPY2CecyaCOIAAAAAAAAABAAAAAAAAAAAAAAAAAAA==

> <PUBCHEM_IUPAC_OPENEYE_NAME>
(2R)-2-[[(2S)-1-[(2S)-2-[[(2S,3S)-2-[[(2S)-2-[[(2S)-2-[[(2S)-5-guanidino-2-[[2-(methylamino)acetyl]amino]pentanoyl]amino]-3-methyl-butanoyl]amino]-3-(4-hydroxyphenyl)propanoyl]amino]-3-methyl-pentanoyl]amino]-3-(1H-imidazol-5-yl)propanoyl]pyrrolidine-2-carbonyl]amino]propanoic acid

> <PUBCHEM_IUPAC_CAS_NAME>
(2R)-2-[[[(2S)-1-[(2S)-2-[[(2S,3S)-2-[[(2S)-2-[[(2S)-2-[[(2S)-5-(diaminomethylideneamino)-2-[[2-(methylamino)-1-oxoethyl]amino]-1-oxopentyl]amino]-3-methyl-1-oxobutyl]amino]-3-(4-hydroxyphenyl)-1-oxopropyl]amino]-3-methyl-1-oxopentyl]amino]-3-(1H-imidazol-5-yl)-1-oxopropyl]-2-pyrrolidinyl]-oxomethyl]amino]propanoic acid

> <PUBCHEM_IUPAC_NAME_MARKUP>
(2<I>R</I>)-2-[[(2<I>S</I>)-1-[(2<I>S</I>)-2-[[(2<I>S</I>,3<I>S</I>)-2-[[(2<I>S</I>)-2-[[(2<I>S</I>)-2-[[(2<I>S</I>)-5-(diaminomethylideneamino)-2-[[2-(methylamino)acetyl]amino]pentanoyl]amino]-3-methylbutanoyl]amino]-3-(4-hydroxyphenyl)propanoyl]amino]-3-methylpentanoyl]amino]-3-(1<I>H</I>-imidazol-5-yl)propanoyl]pyrrolidine-2-carbonyl]amino]propanoic acid

> <PUBCHEM_IUPAC_NAME>
(2R)-2-[[(2S)-1-[(2S)-2-[[(2S,3S)-2-[[(2S)-2-[[(2S)-2-[[(2S)-5-(diaminomethylideneamino)-2-[[2-(methylamino)acetyl]amino]pentanoyl]amino]-3-methylbutanoyl]amino]-3-(4-hydroxyphenyl)propanoyl]amino]-3-methylpentanoyl]amino]-3-(1H-imidazol-5-yl)propanoyl]pyrrolidine-2-carbonyl]amino]propanoic acid

> <PUBCHEM_IUPAC_SYSTEMATIC_NAME>
(2R)-2-[[(2S)-1-[(2S)-2-[[(2S,3S)-2-[[(2S)-2-[[(2S)-2-[[(2S)-5-[bis(azanyl)methylideneamino]-2-[2-(methylamino)ethanoylamino]pentanoyl]amino]-3-methyl-butanoyl]amino]-3-(4-hydroxyphenyl)propanoyl]amino]-3-methyl-pentanoyl]amino]-3-(1H-imidazol-5-yl)propanoyl]pyrrolidin-2-yl]carbonylamino]propanoic acid

> <PUBCHEM_IUPAC_TRADITIONAL_NAME>
(2R)-2-[[(2S)-1-[(2S)-2-[[(2S,3S)-2-[[(2S)-2-[[(2S)-2-[[(2S)-5-guanidino-2-(sarcosylamino)pentanoyl]amino]-3-methyl-butanoyl]amino]-3-(4-hydroxyphenyl)propanoyl]amino]-3-methyl-pentanoyl]amino]-3-(1H-imidazol-5-yl)propanoyl]prolyl]amino]propionic acid

> <PUBCHEM_IUPAC_INCHI>
InChI=1S/C43H67N13O10/c1-7-24(4)35(40(63)53-31(19-27-20-47-22-49-27)41(64)56-17-9-11-32(56)38(61)50-25(5)42(65)66)55-37(60)30(18-26-12-14-28(57)15-13-26)52-39(62)34(23(2)3)54-36(59)29(51-33(58)21-46-6)10-8-16-48-43(44)45/h12-15,20,22-25,29-32,34-35,46,57H,7-11,16-19,21H2,1-6H3,(H,47,49)(H,50,61)(H,51,58)(H,52,62)(H,53,63)(H,54,59)(H,55,60)(H,65,66)(H4,44,45,48)/t24-,25+,29-,30-,31-,32-,34-,35-/m0/s1

> <PUBCHEM_IUPAC_INCHIKEY>
XIEWFECSPPTVQN-KMIMAYJXSA-N

> <PUBCHEM_XLOGP3_AA>
-2.3

> <PUBCHEM_EXACT_MASS>
925.51338539

> <PUBCHEM_MOLECULAR_FORMULA>
C43H67N13O10

> <PUBCHEM_MOLECULAR_WEIGHT>
926.1

> <PUBCHEM_OPENEYE_CAN_SMILES>
CCC(C)C(C(=O)NC(CC1=CN=CN1)C(=O)N2CCCC2C(=O)NC(C)C(=O)O)NC(=O)C(CC3=CC=C(C=C3)O)NC(=O)C(C(C)C)NC(=O)C(CCCN=C(N)N)NC(=O)CNC

> <PUBCHEM_OPENEYE_ISO_SMILES>
CC[C@H](C)[C@@H](C(=O)N[C@@H](CC1=CN=CN1)C(=O)N2CCC[C@H]2C(=O)N[C@H](C)C(=O)O)NC(=O)[C@H](CC3=CC=C(C=C3)O)NC(=O)[C@H](C(C)C)NC(=O)[C@H](CCCN=C(N)N)NC(=O)CNC

> <PUBCHEM_CACTVS_TPSA>
358

> <PUBCHEM_MONOISOTOPIC_WEIGHT>
925.51338539

> <PUBCHEM_TOTAL_CHARGE>
0

> <PUBCHEM_HEAVY_ATOM_COUNT>
66

> <PUBCHEM_ATOM_DEF_STEREO_COUNT>
8

> <PUBCHEM_ATOM_UDEF_STEREO_COUNT>
0

> <PUBCHEM_BOND_DEF_STEREO_COUNT>
0

> <PUBCHEM_BOND_UDEF_STEREO_COUNT>
0

> <PUBCHEM_ISOTOPIC_ATOM_COUNT>
0

> <PUBCHEM_COMPONENT_COUNT>
1

> <PUBCHEM_CACTVS_TAUTO_COUNT>
512

> <PUBCHEM_COORDINATE_TYPE>
1
5
255

> <PUBCHEM_BONDANNOTATIONS>
29  12  6
35  13  5
32  14  6
15  36  8
15  49  8
39  16  5
44  17  5
18  43  8
18  49  8
53  19  6
24  30  6
33  38  5
36  43  8
50  56  8
50  57  8
56  59  8
57  60  8
59  62  8
60  62  8

$$$$
6167
  -OEChem-03012215082D

 54 56  0     1  0  0  0  0  0999 V2000
    5.3788   -2.2731    0.0000 O   0  0  0  0  0  0  0  0  0  0  0  0
    7.0622   -3.4400    0.0000 O   0  0  0  0  0  0  0  0  0  0  0  0
    8.9077   -2.5513    0.0000 O   0  0  0  0  0  0  0  0  0  0  0  0
    2.2948   -0.5920    0.0000 O   0  0  0  0  0  0  0  0  0  0  0  0
    2.7031    1.2084    0.0000 O   0  0  0  0  0  0  0  0  0  0  0  0
    7.0052    3.0308    0.0000 O   0  0  0  0  0  0  0  0  0  0  0  0
    5.4447    2.2793    0.0000 N   0  0  0  0  0  0  0  0  0  0  0  0
    5.8786    1.3783    0.0000 C   0  0  1  0  0  0  0  0  0  0  0  0
    6.8786    1.3783    0.0000 C   0  0  0  0  0  0  0  0  0  0  0  0
    7.5021    0.5965    0.0000 C   0  0  0  0  0  0  0  0  0  0  0  0
    5.2551    0.5965    0.0000 C   0  0  0  0  0  0  0  0  0  0  0  0
    7.2796   -0.3784    0.0000 C   0  0  0  0  0  0  0  0  0  0  0  0
    6.3786   -0.8123    0.0000 C   0  0  0  0  0  0  0  0  0  0  0  0
    5.4776   -0.3784    0.0000 C   0  0  0  0  0  0  0  0  0  0  0  0
    6.2847   -1.8497    0.0000 C   0  0  0  0  0  0  0  0  0  0  0  0
    8.1491   -0.9519    0.0000 C   0  0  0  0  0  0  0  0  0  0  0  0
    4.3686    1.0161    0.0000 C   0  0  0  0  0  0  0  0  0  0  0  0
    4.8610   -1.1411    0.0000 C   0  0  0  0  0  0  0  0  0  0  0  0
    7.1408   -2.4431    0.0000 C   0  0  0  0  0  0  0  0  0  0  0  0
    8.0793   -1.9912    0.0000 C   0  0  0  0  0  0  0  0  0  0  0  0
    3.4866    0.5870    0.0000 C   0  0  0  0  0  0  0  0  0  0  0  0
    6.0080    3.1055    0.0000 C   0  0  0  0  0  0  0  0  0  0  0  0
    3.8802   -1.1372    0.0000 C   0  0  0  0  0  0  0  0  0  0  0  0
    3.2697   -0.3695    0.0000 C   0  0  0  0  0  0  0  0  0  0  0  0
    5.5741    4.0065    0.0000 C   0  0  0  0  0  0  0  0  0  0  0  0
    5.2926   -3.2694    0.0000 C   0  0  0  0  0  0  0  0  0  0  0  0
    7.8863   -4.0065    0.0000 C   0  0  0  0  0  0  0  0  0  0  0  0
    9.8070   -2.1139    0.0000 C   0  0  0  0  0  0  0  0  0  0  0  0
    2.0000   -1.5476    0.0000 C   0  0  0  0  0  0  0  0  0  0  0  0
    6.2084    1.9033    0.0000 H   0  0  0  0  0  0  0  0  0  0  0  0
    7.4372    1.6473    0.0000 H   0  0  0  0  0  0  0  0  0  0  0  0
    6.7406    1.9828    0.0000 H   0  0  0  0  0  0  0  0  0  0  0  0
    8.0607    0.3275    0.0000 H   0  0  0  0  0  0  0  0  0  0  0  0
    7.8886    1.0812    0.0000 H   0  0  0  0  0  0  0  0  0  0  0  0
    4.8264    2.3256    0.0000 H   0  0  0  0  0  0  0  0  0  0  0  0
    8.7046   -0.6764    0.0000 H   0  0  0  0  0  0  0  0  0  0  0  0
    4.3652    1.6361    0.0000 H   0  0  0  0  0  0  0  0  0  0  0  0
    5.1270   -1.7012    0.0000 H   0  0  0  0  0  0  0  0  0  0  0  0
    3.6097   -1.6950    0.0000 H   0  0  0  0  0  0  0  0  0  0  0  0
    6.1327    4.2755    0.0000 H   0  0  0  0  0  0  0  0  0  0  0  0
    5.3051    4.5651    0.0000 H   0  0  0  0  0  0  0  0  0  0  0  0
    5.0155    3.7375    0.0000 H   0  0  0  0  0  0  0  0  0  0  0  0
    4.6749   -3.2159    0.0000 H   0  0  0  0  0  0  0  0  0  0  0  0
    5.2391   -3.8871    0.0000 H   0  0  0  0  0  0  0  0  0  0  0  0
    5.9102   -3.3229    0.0000 H   0  0  0  0  0  0  0  0  0  0  0  0
    7.5351   -4.5174    0.0000 H   0  0  0  0  0  0  0  0  0  0  0  0
    8.3972   -4.3577    0.0000 H   0  0  0  0  0  0  0  0  0  0  0  0
    8.2375   -3.4956    0.0000 H   0  0  0  0  0  0  0  0  0  0  0  0
   10.0781   -2.6715    0.0000 H   0  0  0  0  0  0  0  0  0  0  0  0
   10.3646   -1.8428    0.0000 H   0  0  0  0  0  0  0  0  0  0  0  0
    9.5358   -1.5564    0.0000 H   0  0  0  0  0  0  0  0  0  0  0  0
    1.4075   -1.3649    0.0000 H   0  0  0  0  0  0  0  0  0  0  0  0
    1.8172   -2.1401    0.0000 H   0  0  0  0  0  0  0  0  0  0  0  0
    2.5925   -1.7304    0.0000 H   0  0  0  0  0  0  0  0  0  0  0  0
  1 15  1  0  0  0  0
  1 26  1  0  0  0  0
  2 19  1  0  0  0  0
  2 27  1  0  0  0  0
  3 20  1  0  0  0  0
  3 28  1  0  0  0  0
  4 24  1  0  0  0  0
  4 29  1  0  0  0  0
  5 21  2  0  0  0  0
  6 22  2  0  0  0  0
  8  7  1  1  0  0  0
  7 22  1  0  0  0  0
  7 35  1  0  0  0  0
  8  9  1  0  0  0  0
  8 11  1  0  0  0  0
  8 30  1  0  0  0  0
  9 10  1  0  0  0  0
  9 31  1  0  0  0  0
  9 32  1  0  0  0  0
 10 12  1  0  0  0  0
 10 33  1  0  0  0  0
 10 34  1  0  0  0  0
 11 14  1  0  0  0  0
 11 17  2  0  0  0  0
 12 13  1  0  0  0  0
 12 16  2  0  0  0  0
 13 14  1  0  0  0  0
 13 15  2  0  0  0  0
 14 18  2  0  0  0  0
 15 19  1  0  0  0  0
 16 20  1  0  0  0  0
 16 36  1  0  0  0  0
 17 21  1  0  0  0  0
 17 37  1  0  0  0  0
 18 23  1  0  0  0  0
 18 38  1  0  0  0  0
 19 20  2  0  0  0  0
 21 24  1  0  0  0  0
 22 25  1  0  0  0  0
 23 24  2  0  0  0  0
 23 39  1  0  0  0  0
 25 40  1  0  0  0  0
 25 41  1  0  0  0  0
 25 42  1  0  0  0  0
 26 43  1  0  0  0  0
 26 44  1  0  0  0  0
 26 45  1  0  0  0  0
 27 46  1  0  0  0  0
 27 47  1  0  0  0  0
 27 48  1  0  0  0  0
 28 49  1  0  0  0  0
 28 50  1  0  0  0  0
 28 51  1  0  0  0  0
 29 52  1  0  0  0  0
 29 53  1  0  0  0  0
 29 54  1  0  0  0  0
M  END
> <PUBCHEM_COMPOUND_CID>
6167

> <PUBCHEM_COMPOUND_CANONICALIZED>
1

> <PUBCHEM_CACTVS_COMPLEXITY>
740

> <PUBCHEM_CACTVS_HBOND_ACCEPTOR>
6

> <PUBCHEM_CACTVS_HBOND_DONOR>
1

> <PUBCHEM_CACTVS_ROTATABLE_BOND>
5

> <PUBCHEM_CACTVS_SUBSKEYS>
AAADceB6OAAAAAAAAAAAAAAAAAAAAAAAAAAwAAAABggAAAABAAAAHgAQAAAADCzBmAYyBoLABACIAqFSEAKCCAAgIAAAiIBOiMgNJyKEsR6EMCIl1hWKqYeQ8P8OoAABCAAYQABAAAIQADCAAAAAAAAAAA==

> <PUBCHEM_IUPAC_OPENEYE_NAME>
N-[(7S)-1,2,3,10-tetramethoxy-9-oxo-6,7-dihydro-5H-benzo[a]heptalen-7-yl]acetamide

> <PUBCHEM_IUPAC_CAS_NAME>
N-[(7S)-1,2,3,10-tetramethoxy-9-oxo-6,7-dihydro-5H-benzo[a]heptalen-7-yl]acetamide

> <PUBCHEM_IUPAC_NAME_MARKUP>
<I>N</I>-[(7<I>S</I>)-1,2,3,10-tetramethoxy-9-oxo-6,7-dihydro-5<I>H</I>-benzo[a]heptalen-7-yl]acetamide

> <PUBCHEM_IUPAC_NAME>
N-[(7S)-1,2,3,10-tetramethoxy-9-oxo-6,7-dihydro-5H-benzo[a]heptalen-7-yl]acetamide

> <PUBCHEM_IUPAC_SYSTEMATIC_NAME>
N-[(7S)-1,2,3,10-tetramethoxy-9-oxidanylidene-6,7-dihydro-5H-benzo[a]heptalen-7-yl]ethanamide

> <PUBCHEM_IUPAC_TRADITIONAL_NAME>
N-[(7S)-9-keto-1,2,3,10-tetramethoxy-6,7-dihydro-5H-benzo[a]heptalen-7-yl]acetamide

> <PUBCHEM_IUPAC_INCHI>
InChI=1S/C22H25NO6/c1-12(24)23-16-8-6-13-10-19(27-3)21(28-4)22(29-5)20(13)14-7-9-18(26-2)17(25)11-15(14)16/h7,9-11,16H,6,8H2,1-5H3,(H,23,24)/t16-/m0/s1

> <PUBCHEM_IUPAC_INCHIKEY>
IAKHMKGGTNLKSZ-INIZCTEOSA-N

> <PUBCHEM_XLOGP3>
1

> <PUBCHEM_EXACT_MASS>
399.16818752

> <PUBCHEM_MOLECULAR_FORMULA>
C22H25NO6

> <PUBCHEM_MOLECULAR_WEIGHT>
399.4

> <PUBCHEM_OPENEYE_CAN_SMILES>
CC(=O)NC1CCC2=CC(=C(C(=C2C3=CC=C(C(=O)C=C13)OC)OC)OC)OC

> <PUBCHEM_OPENEYE_ISO_SMILES>
CC(=O)N[C@H]1CCC2=CC(=C(C(=C2C3=CC=C(C(=O)C=C13)OC)OC)OC)OC

> <PUBCHEM_CACTVS_TPSA>
83.1

> <PUBCHEM_MONOISOTOPIC_WEIGHT>
399.16818752

> <PUBCHEM_TOTAL_CHARGE>
0

> <PUBCHEM_HEAVY_ATOM_COUNT>
29

> <PUBCHEM_ATOM_DEF_STEREO_COUNT>
1

> <PUBCHEM_ATOM_UDEF_STEREO_COUNT>
0

> <PUBCHEM_BOND_DEF_STEREO_COUNT>
0

> <PUBCHEM_BOND_UDEF_STEREO_COUNT>
0

> <PUBCHEM_ISOTOPIC_ATOM_COUNT>
0

> <PUBCHEM_COMPONENT_COUNT>
1

> <PUBCHEM_CACTVS_TAUTO_COUNT>
2

> <PUBCHEM_COORDINATE_TYPE>
1
5
255

> <PUBCHEM_BONDANNOTATIONS>
11  14  8
11  17  8
12  13  8
12  16  8
13  15  8
14  18  8
15  19  8
16  20  8
17  21  8
18  23  8
19  20  8
21  24  8
23  24  8
8  7  5

$$$$
15604015
  -OEChem-03012215082D

 52 56  0     1  0  0  0  0  0999 V2000
    9.1288   -4.3884    0.0000 Cl   0  0  0  0  0  0  0  0  0  0  0  0
    6.3301    1.3884    0.0000 O    0  0  0  0  0  0  0  0  0  0  0  0
    4.5981    1.3884    0.0000 N    0  0  0  0  0  0  0  0  0  0  0  0
    2.0000    3.8884    0.0000 N    0  0  0  0  0  0  0  0  0  0  0  0
    6.3003   -1.5600    0.0000 C    0  0  0  0  0  0  0  0  0  0  0  0
    5.4641   -0.1116    0.0000 C    0  0  0  0  0  0  0  0  0  0  0  0
    4.6279   -1.5600    0.0000 C    0  0  3  0  0  0  0  0  0  0  0  0
    4.7730   -1.9951    0.0000 C    0  0  3  0  0  0  0  0  0  0  0  0
    6.3003   -0.5944    0.0000 C    0  0  0  0  0  0  0  0  0  0  0  0
    5.4641   -1.8627    0.0000 C    0  0  0  0  0  0  0  0  0  0  0  0
    5.6787   -2.4719    0.0000 C    0  0  0  0  0  0  0  0  0  0  0  0
    4.6279   -0.5944    0.0000 C    0  0  0  0  0  0  0  0  0  0  0  0
    4.7730   -0.9498    0.0000 C    0  0  0  0  0  0  0  0  0  0  0  0
    3.7911   -2.0427    0.0000 C    0  0  0  0  0  0  0  0  0  0  0  0
    7.0074   -2.2671    0.0000 C    0  0  0  0  0  0  0  0  0  0  0  0
    5.4641    0.8884    0.0000 C    0  0  0  0  0  0  0  0  0  0  0  0
    6.7486   -3.2330    0.0000 C    0  0  0  0  0  0  0  0  0  0  0  0
    7.9733   -2.0082    0.0000 C    0  0  0  0  0  0  0  0  0  0  0  0
    7.4557   -3.9401    0.0000 C    0  0  0  0  0  0  0  0  0  0  0  0
    8.6804   -2.7153    0.0000 C    0  0  0  0  0  0  0  0  0  0  0  0
    4.5981    2.3884    0.0000 C    0  0  0  0  0  0  0  0  0  0  0  0
    8.4216   -3.6812    0.0000 C    0  0  0  0  0  0  0  0  0  0  0  0
    3.7320    2.8884    0.0000 C    0  0  0  0  0  0  0  0  0  0  0  0
    2.8660    2.3884    0.0000 C    0  0  0  0  0  0  0  0  0  0  0  0
    3.7320    3.8884    0.0000 C    0  0  0  0  0  0  0  0  0  0  0  0
    2.0000    2.8884    0.0000 C    0  0  0  0  0  0  0  0  0  0  0  0
    2.8660    4.3884    0.0000 C    0  0  0  0  0  0  0  0  0  0  0  0
    4.0910   -1.2499    0.0000 H    0  0  0  0  0  0  0  0  0  0  0  0
    4.3241   -1.5674    0.0000 H    0  0  0  0  0  0  0  0  0  0  0  0
    6.9109   -0.7021    0.0000 H    0  0  0  0  0  0  0  0  0  0  0  0
    6.5124   -0.0118    0.0000 H    0  0  0  0  0  0  0  0  0  0  0  0
    5.0942   -2.3602    0.0000 H    0  0  0  0  0  0  0  0  0  0  0  0
    5.8341   -2.3602    0.0000 H    0  0  0  0  0  0  0  0  0  0  0  0
    5.3693   -3.0091    0.0000 H    0  0  0  0  0  0  0  0  0  0  0  0
    6.2038   -2.8014    0.0000 H    0  0  0  0  0  0  0  0  0  0  0  0
    4.4159   -0.0118    0.0000 H    0  0  0  0  0  0  0  0  0  0  0  0
    4.0173   -0.7021    0.0000 H    0  0  0  0  0  0  0  0  0  0  0  0
    4.4294   -0.4337    0.0000 H    0  0  0  0  0  0  0  0  0  0  0  0
    4.1796   -1.1293    0.0000 H    0  0  0  0  0  0  0  0  0  0  0  0
    3.3099   -1.6518    0.0000 H    0  0  0  0  0  0  0  0  0  0  0  0
    3.5980   -2.6319    0.0000 H    0  0  0  0  0  0  0  0  0  0  0  0
    6.1497   -3.3935    0.0000 H    0  0  0  0  0  0  0  0  0  0  0  0
    8.1338   -1.4094    0.0000 H    0  0  0  0  0  0  0  0  0  0  0  0
    4.0611    1.0784    0.0000 H    0  0  0  0  0  0  0  0  0  0  0  0
    7.2953   -4.5390    0.0000 H    0  0  0  0  0  0  0  0  0  0  0  0
    9.2793   -2.5548    0.0000 H    0  0  0  0  0  0  0  0  0  0  0  0
    5.2087    2.2807    0.0000 H    0  0  0  0  0  0  0  0  0  0  0  0
    4.8101    2.9710    0.0000 H    0  0  0  0  0  0  0  0  0  0  0  0
    2.8660    1.7684    0.0000 H    0  0  0  0  0  0  0  0  0  0  0  0
    4.2690    4.1984    0.0000 H    0  0  0  0  0  0  0  0  0  0  0  0
    1.4631    2.5784    0.0000 H    0  0  0  0  0  0  0  0  0  0  0  0
    2.8660    5.0084    0.0000 H    0  0  0  0  0  0  0  0  0  0  0  0
  1 22  1  0  0  0  0
  2 16  2  0  0  0  0
  3 16  1  0  0  0  0
  3 21  1  0  0  0  0
  3 44  1  0  0  0  0
  4 26  2  0  0  0  0
  4 27  1  0  0  0  0
  5  9  1  0  0  0  0
  5 10  1  0  0  0  0
  5 11  1  0  0  0  0
  5 15  1  0  0  0  0
  6  9  1  0  0  0  0
  6 12  1  0  0  0  0
  6 13  1  0  0  0  0
  6 16  1  0  0  0  0
  7 10  1  0  0  0  0
  7 12  1  0  0  0  0
  7 14  1  0  0  0  0
  7 28  1  0  0  0  0
  8 11  1  0  0  0  0
  8 13  1  0  0  0  0
  8 14  1  0  0  0  0
  8 29  1  0  0  0  0
  9 30  1  0  0  0  0
  9 31  1  0  0  0  0
 10 32  1  0  0  0  0
 10 33  1  0  0  0  0
 11 34  1  0  0  0  0
 11 35  1  0  0  0  0
 12 36  1  0  0  0  0
 12 37  1  0  0  0  0
 13 38  1  0  0  0  0
 13 39  1  0  0  0  0
 14 40  1  0  0  0  0
 14 41  1  0  0  0  0
 15 17  2  0  0  0  0
 15 18  1  0  0  0  0
 17 19  1  0  0  0  0
 17 42  1  0  0  0  0
 18 20  2  0  0  0  0
 18 43  1  0  0  0  0
 19 22  2  0  0  0  0
 19 45  1  0  0  0  0
 20 22  1  0  0  0  0
 20 46  1  0  0  0  0
 21 23  1  0  0  0  0
 21 47  1  0  0  0  0
 21 48  1  0  0  0  0
 23 24  2  0  0  0  0
 23 25  1  0  0  0  0
 24 26  1  0  0  0  0
 24 49  1  0  0  0  0
 25 27  2  0  0  0  0
 25 50  1  0  0  0  0
 26 51  1  0  0  0  0
 27 52  1  0  0  0  0
M  END
> <PUBCHEM_COMPOUND_CID>
15604015

> <PUBCHEM_COMPOUND_CANONICALIZED>
1

> <PUBCHEM_CACTVS_COMPLEXITY>
551

> <PUBCHEM_CACTVS_HBOND_ACCEPTOR>
2

> <PUBCHEM_CACTVS_HBOND_DONOR>
1

> <PUBCHEM_CACTVS_ROTATABLE_BOND>
4

> <PUBCHEM_CACTVS_SUBSKEYS>
AAADceB7IAAEAAAAAAAAAAAAAAAAAAAAAAA8YMGDAAAAAAABwAAAHgIQAAAADwLBmiQ8gJLIEACoAjF3VACCgCAxByAI2KE4ZpgIIHLBk5GEIAhghgDIyAcYiMCPhAAAAAAAAAAIAAQAAAAAAAAAAAAAAA==

> <PUBCHEM_IUPAC_OPENEYE_NAME>
3-(4-chlorophenyl)-N-(4-pyridylmethyl)adamantane-1-carboxamide

> <PUBCHEM_IUPAC_CAS_NAME>
3-(4-chlorophenyl)-N-(pyridin-4-ylmethyl)-1-adamantanecarboxamide

> <PUBCHEM_IUPAC_NAME_MARKUP>
3-(4-chlorophenyl)-<I>N</I>-(pyridin-4-ylmethyl)adamantane-1-carboxamide

> <PUBCHEM_IUPAC_NAME>
3-(4-chlorophenyl)-N-(pyridin-4-ylmethyl)adamantane-1-carboxamide

> <PUBCHEM_IUPAC_SYSTEMATIC_NAME>
3-(4-chlorophenyl)-N-(pyridin-4-ylmethyl)adamantane-1-carboxamide

> <PUBCHEM_IUPAC_TRADITIONAL_NAME>
3-(4-chlorophenyl)-N-(4-pyridylmethyl)adamantane-1-carboxamide

> <PUBCHEM_IUPAC_INCHI>
InChI=1S/C23H25ClN2O/c24-20-3-1-19(2-4-20)22-10-17-9-18(11-22)13-23(12-17,15-22)21(27)26-14-16-5-7-25-8-6-16/h1-8,17-18H,9-15H2,(H,26,27)

> <PUBCHEM_IUPAC_INCHIKEY>
CAOTVXGYTWCKQE-UHFFFAOYSA-N

> <PUBCHEM_XLOGP3_AA>
4.7

> <PUBCHEM_EXACT_MASS>
380.1655411

> <PUBCHEM_MOLECULAR_FORMULA>
C23H25ClN2O

> <PUBCHEM_MOLECULAR_WEIGHT>
380.9

> <PUBCHEM_OPENEYE_CAN_SMILES>
C1C2CC3(CC1CC(C2)(C3)C(=O)NCC4=CC=NC=C4)C5=CC=C(C=C5)Cl

> <PUBCHEM_OPENEYE_ISO_SMILES>
C1C2CC3(CC1CC(C2)(C3)C(=O)NCC4=CC=NC=C4)C5=CC=C(C=C5)Cl

> <PUBCHEM_CACTVS_TPSA>
42

> <PUBCHEM_MONOISOTOPIC_WEIGHT>
380.1655411

> <PUBCHEM_TOTAL_CHARGE>
0

> <PUBCHEM_HEAVY_ATOM_COUNT>
27

> <PUBCHEM_ATOM_DEF_STEREO_COUNT>
0

> <PUBCHEM_ATOM_UDEF_STEREO_COUNT>
2

> <PUBCHEM_BOND_DEF_STEREO_COUNT>
0

> <PUBCHEM_BOND_UDEF_STEREO_COUNT>
0

> <PUBCHEM_ISOTOPIC_ATOM_COUNT>
0

> <PUBCHEM_COMPONENT_COUNT>
1

> <PUBCHEM_CACTVS_TAUTO_COUNT>
2

> <PUBCHEM_COORDINATE_TYPE>
1
5
255

> <PUBCHEM_BONDANNOTATIONS>
15  17  8
15  18  8
17  19  8
18  20  8
19  22  8
20  22  8
23  24  8
23  25  8
24  26  8
25  27  8
4  26  8
4  27  8
7  14  3
8  14  3

$$$$
46215462
  -OEChem-03012215082D

 72 78  0     1  0  0  0  0  0999 V2000
   13.8762   -3.8869    0.0000 N   0  0  0  0  0  0  0  0  0  0  0  0
    8.7478   -0.8825    0.0000 N   0  0  0  0  0  0  0  0  0  0  0  0
    7.4121    1.3337    0.0000 N   0  0  0  0  0  0  0  0  0  0  0  0
    7.4459    0.3343    0.0000 N   0  0  0  0  0  0  0  0  0  0  0  0
    8.9670    0.8860    0.0000 N   0  0  0  0  0  0  0  0  0  0  0  0
    4.7892    2.0353    0.0000 N   0  0  0  0  0  0  0  0  0  0  0  0
    5.6452    1.4419    0.0000 N   0  0  0  0  0  0  0  0  0  0  0  0
    8.6289    2.6356    0.0000 N   0  0  0  0  0  0  0  0  0  0  0  0
   13.1134   -3.2403    0.0000 C   0  0  2  0  0  0  0  0  0  0  0  0
   14.8477   -3.6498    0.0000 C   0  0  0  0  0  0  0  0  0  0  0  0
   13.8015   -4.8841    0.0000 C   0  0  0  0  0  0  0  0  0  0  0  0
   12.1998   -3.6471    0.0000 C   0  0  0  0  0  0  0  0  0  0  0  0
   13.3649   -2.2725    0.0000 C   0  0  0  0  0  0  0  0  0  0  0  0
   15.3734   -4.5005    0.0000 C   0  0  0  0  0  0  0  0  0  0  0  0
   14.7268   -5.2634    0.0000 C   0  0  0  0  0  0  0  0  0  0  0  0
   11.3122   -3.1864    0.0000 C   0  0  0  0  0  0  0  0  0  0  0  0
   12.7651   -1.4724    0.0000 C   0  0  0  0  0  0  0  0  0  0  0  0
   11.1190   -2.2053    0.0000 C   0  0  0  0  0  0  0  0  0  0  0  0
   11.7656   -1.4424    0.0000 C   0  0  0  0  0  0  0  0  0  0  0  0
   10.0913   -2.0351    0.0000 C   0  0  0  0  0  0  0  0  0  0  0  0
   11.4294   -0.4566    0.0000 C   0  0  0  0  0  0  0  0  0  0  0  0
    9.7324   -1.0573    0.0000 C   0  0  0  0  0  0  0  0  0  0  0  0
   10.4059   -0.2627    0.0000 C   0  0  0  0  0  0  0  0  0  0  0  0
    5.3830    5.2634    0.0000 C   0  0  0  0  0  0  0  0  0  0  0  0
    6.0065    4.4815    0.0000 C   0  0  0  0  0  0  0  0  0  0  0  0
    4.3830    5.2634    0.0000 C   0  0  0  0  0  0  0  0  0  0  0  0
    8.4068    0.0576    0.0000 C   0  0  0  0  0  0  0  0  0  0  0  0
    5.7840    3.5066    0.0000 C   0  0  0  0  0  0  0  0  0  0  0  0
    3.7595    4.4815    0.0000 C   0  0  0  0  0  0  0  0  0  0  0  0
    3.9820    3.5066    0.0000 C   0  0  0  0  0  0  0  0  0  0  0  0
    4.8830    3.0727    0.0000 C   0  0  0  0  0  0  0  0  0  0  0  0
    6.6536    2.9332    0.0000 C   0  0  0  0  0  0  0  0  0  0  0  0
    6.5837    1.8939    0.0000 C   0  0  0  0  0  0  0  0  0  0  0  0
    2.7690    4.8038    0.0000 C   0  0  0  0  0  0  0  0  0  0  0  0
    3.2295    2.7864    0.0000 C   0  0  0  0  0  0  0  0  0  0  0  0
    8.3522    1.6747    0.0000 C   0  0  0  0  0  0  0  0  0  0  0  0
    2.0000    4.1013    0.0000 C   0  0  0  0  0  0  0  0  0  0  0  0
    2.2318    3.0858    0.0000 C   0  0  0  0  0  0  0  0  0  0  0  0
   13.0255   -3.8541    0.0000 H   0  0  0  0  0  0  0  0  0  0  0  0
   15.4063   -3.3808    0.0000 H   0  0  0  0  0  0  0  0  0  0  0  0
   14.6385   -3.0662    0.0000 H   0  0  0  0  0  0  0  0  0  0  0  0
   13.1914   -4.7734    0.0000 H   0  0  0  0  0  0  0  0  0  0  0  0
   13.6276   -5.4793    0.0000 H   0  0  0  0  0  0  0  0  0  0  0  0
   11.7989   -4.1200    0.0000 H   0  0  0  0  0  0  0  0  0  0  0  0
   12.5717   -4.1431    0.0000 H   0  0  0  0  0  0  0  0  0  0  0  0
   13.9152   -2.5581    0.0000 H   0  0  0  0  0  0  0  0  0  0  0  0
   13.7658   -1.7995    0.0000 H   0  0  0  0  0  0  0  0  0  0  0  0
   15.8018   -4.9486    0.0000 H   0  0  0  0  0  0  0  0  0  0  0  0
   15.8638   -4.1212    0.0000 H   0  0  0  0  0  0  0  0  0  0  0  0
   14.4330   -5.8093    0.0000 H   0  0  0  0  0  0  0  0  0  0  0  0
   15.2390   -5.6126    0.0000 H   0  0  0  0  0  0  0  0  0  0  0  0
   10.6925   -3.1679    0.0000 H   0  0  0  0  0  0  0  0  0  0  0  0
   11.1562   -3.7865    0.0000 H   0  0  0  0  0  0  0  0  0  0  0  0
   13.3315   -1.2202    0.0000 H   0  0  0  0  0  0  0  0  0  0  0  0
   12.6453   -0.8640    0.0000 H   0  0  0  0  0  0  0  0  0  0  0  0
    9.6959   -2.5127    0.0000 H   0  0  0  0  0  0  0  0  0  0  0  0
   11.8357    0.0117    0.0000 H   0  0  0  0  0  0  0  0  0  0  0  0
   10.1990    0.3218    0.0000 H   0  0  0  0  0  0  0  0  0  0  0  0
    8.3487   -1.3570    0.0000 H   0  0  0  0  0  0  0  0  0  0  0  0
    5.9416    5.5324    0.0000 H   0  0  0  0  0  0  0  0  0  0  0  0
    5.2450    5.8678    0.0000 H   0  0  0  0  0  0  0  0  0  0  0  0
    6.5651    4.2125    0.0000 H   0  0  0  0  0  0  0  0  0  0  0  0
    6.3930    4.9662    0.0000 H   0  0  0  0  0  0  0  0  0  0  0  0
    4.5210    5.8678    0.0000 H   0  0  0  0  0  0  0  0  0  0  0  0
    3.8244    5.5324    0.0000 H   0  0  0  0  0  0  0  0  0  0  0  0
    7.2090    3.2086    0.0000 H   0  0  0  0  0  0  0  0  0  0  0  0
    2.6380    5.4099    0.0000 H   0  0  0  0  0  0  0  0  0  0  0  0
    3.3744    2.1836    0.0000 H   0  0  0  0  0  0  0  0  0  0  0  0
    1.4082    4.2863    0.0000 H   0  0  0  0  0  0  0  0  0  0  0  0
    1.7789    2.6623    0.0000 H   0  0  0  0  0  0  0  0  0  0  0  0
    9.2307    2.7849    0.0000 H   0  0  0  0  0  0  0  0  0  0  0  0
    8.1987    3.0821    0.0000 H   0  0  0  0  0  0  0  0  0  0  0  0
  9  1  1  6  0  0  0
  1 10  1  0  0  0  0
  1 11  1  0  0  0  0
  2 22  1  0  0  0  0
  2 27  1  0  0  0  0
  2 59  1  0  0  0  0
  3  4  1  0  0  0  0
  3 33  1  0  0  0  0
  3 36  1  0  0  0  0
  4 27  2  0  0  0  0
  5 27  1  0  0  0  0
  5 36  2  0  0  0  0
  6  7  1  0  0  0  0
  6 31  2  0  0  0  0
  7 33  2  0  0  0  0
  8 36  1  0  0  0  0
  8 71  1  0  0  0  0
  8 72  1  0  0  0  0
  9 12  1  0  0  0  0
  9 13  1  0  0  0  0
  9 39  1  0  0  0  0
 10 14  1  0  0  0  0
 10 40  1  0  0  0  0
 10 41  1  0  0  0  0
 11 15  1  0  0  0  0
 11 42  1  0  0  0  0
 11 43  1  0  0  0  0
 12 16  1  0  0  0  0
 12 44  1  0  0  0  0
 12 45  1  0  0  0  0
 13 17  1  0  0  0  0
 13 46  1  0  0  0  0
 13 47  1  0  0  0  0
 14 15  1  0  0  0  0
 14 48  1  0  0  0  0
 14 49  1  0  0  0  0
 15 50  1  0  0  0  0
 15 51  1  0  0  0  0
 16 18  1  0  0  0  0
 16 52  1  0  0  0  0
 16 53  1  0  0  0  0
 17 19  1  0  0  0  0
 17 54  1  0  0  0  0
 17 55  1  0  0  0  0
 18 19  2  0  0  0  0
 18 20  1  0  0  0  0
 19 21  1  0  0  0  0
 20 22  2  0  0  0  0
 20 56  1  0  0  0  0
 21 23  2  0  0  0  0
 21 57  1  0  0  0  0
 22 23  1  0  0  0  0
 23 58  1  0  0  0  0
 24 25  1  0  0  0  0
 24 26  1  0  0  0  0
 24 60  1  0  0  0  0
 24 61  1  0  0  0  0
 25 28  1  0  0  0  0
 25 62  1  0  0  0  0
 25 63  1  0  0  0  0
 26 29  1  0  0  0  0
 26 64  1  0  0  0  0
 26 65  1  0  0  0  0
 28 31  1  0  0  0  0
 28 32  2  0  0  0  0
 29 30  1  0  0  0  0
 29 34  2  0  0  0  0
 30 31  1  0  0  0  0
 30 35  2  0  0  0  0
 32 33  1  0  0  0  0
 32 66  1  0  0  0  0
 34 37  1  0  0  0  0
 34 67  1  0  0  0  0
 35 38  1  0  0  0  0
 35 68  1  0  0  0  0
 37 38  2  0  0  0  0
 37 69  1  0  0  0  0
 38 70  1  0  0  0  0
M  END
> <PUBCHEM_COMPOUND_CID>
46215462

> <PUBCHEM_COMPOUND_CANONICALIZED>
1

> <PUBCHEM_CACTVS_COMPLEXITY>
775

> <PUBCHEM_CACTVS_HBOND_ACCEPTOR>
7

> <PUBCHEM_CACTVS_HBOND_DONOR>
2

> <PUBCHEM_CACTVS_ROTATABLE_BOND>
4

> <PUBCHEM_CACTVS_SUBSKEYS>
AAADcfB7wAAAAAAAAAAAAAAAAAAAAWLAAAA8YIAABgwAAAAB9AAAHAAYAAAADCjBHgQx8JfIEACiAyZiZACSBCshAoAdmCA4ZJiIKKLAmZGEoAh4mALIyCcQgMAOiAAAQAAQAAAQAACAACAAAAAAAAAAAA==

> <PUBCHEM_IUPAC_OPENEYE_NAME>
1-(3,4-diazatricyclo[9.4.0.02,7]pentadeca-1(15),2,4,6,11,13-hexaen-5-yl)-N3-[(7S)-7-pyrrolidin-1-yl-6,7,8,9-tetrahydro-5H-benzo[7]annulen-3-yl]-1,2,4-triazole-3,5-diamine

> <PUBCHEM_IUPAC_CAS_NAME>
1-(3,4-diazatricyclo[9.4.0.02,7]pentadeca-1(15),2,4,6,11,13-hexaen-5-yl)-N3-[(7S)-7-(1-pyrrolidinyl)-6,7,8,9-tetrahydro-5H-benzo[7]annulen-3-yl]-1,2,4-triazole-3,5-diamine

> <PUBCHEM_IUPAC_NAME_MARKUP>
1-(3,4-diazatricyclo[9.4.0.0<SUP>2,7</SUP>]pentadeca-1(15),2,4,6,11,13-hexaen-5-yl)-3-<I>N</I>-[(7<I>S</I>)-7-pyrrolidin-1-yl-6,7,8,9-tetrahydro-5<I>H</I>-benzo[7]annulen-3-yl]-1,2,4-triazole-3,5-diamine

> <PUBCHEM_IUPAC_NAME>
1-(3,4-diazatricyclo[9.4.0.02,7]pentadeca-1(15),2,4,6,11,13-hexaen-5-yl)-3-N-[(7S)-7-pyrrolidin-1-yl-6,7,8,9-tetrahydro-5H-benzo[7]annulen-3-yl]-1,2,4-triazole-3,5-diamine

> <PUBCHEM_IUPAC_SYSTEMATIC_NAME>
1-(3,4-diazatricyclo[9.4.0.02,7]pentadeca-1(15),2,4,6,11,13-hexaen-5-yl)-N3-[(7S)-7-pyrrolidin-1-yl-6,7,8,9-tetrahydro-5H-benzo[7]annulen-3-yl]-1,2,4-triazole-3,5-diamine

> <PUBCHEM_IUPAC_TRADITIONAL_NAME>
[5-amino-1-(3,4-diazatricyclo[9.4.0.02,7]pentadeca-1(15),2,4,6,11,13-hexaen-5-yl)-1,2,4-triazol-3-yl]-[(7S)-7-pyrrolidino-6,7,8,9-tetrahydro-5H-benzocyclohepten-3-yl]amine

> <PUBCHEM_IUPAC_INCHI>
InChI=1S/C30H34N8/c31-29-33-30(32-24-13-10-20-11-14-25(15-12-22(20)18-24)37-16-3-4-17-37)36-38(29)27-19-23-8-5-7-21-6-1-2-9-26(21)28(23)35-34-27/h1-2,6,9-10,13,18-19,25H,3-5,7-8,11-12,14-17H2,(H3,31,32,33,36)/t25-/m0/s1

> <PUBCHEM_IUPAC_INCHIKEY>
KXMZDGSRSGHMMK-VWLOTQADSA-N

> <PUBCHEM_XLOGP3_AA>
5.5

> <PUBCHEM_EXACT_MASS>
506.29064312

> <PUBCHEM_MOLECULAR_FORMULA>
C30H34N8

> <PUBCHEM_MOLECULAR_WEIGHT>
506.6

> <PUBCHEM_OPENEYE_CAN_SMILES>
C1CCN(C1)C2CCC3=C(CC2)C=C(C=C3)NC4=NN(C(=N4)N)C5=NN=C6C(=C5)CCCC7=CC=CC=C76

> <PUBCHEM_OPENEYE_ISO_SMILES>
C1CCN(C1)[C@H]2CCC3=C(CC2)C=C(C=C3)NC4=NN(C(=N4)N)C5=NN=C6C(=C5)CCCC7=CC=CC=C76

> <PUBCHEM_CACTVS_TPSA>
97.8

> <PUBCHEM_MONOISOTOPIC_WEIGHT>
506.29064312

> <PUBCHEM_TOTAL_CHARGE>
0

> <PUBCHEM_HEAVY_ATOM_COUNT>
38

> <PUBCHEM_ATOM_DEF_STEREO_COUNT>
1

> <PUBCHEM_ATOM_UDEF_STEREO_COUNT>
0

> <PUBCHEM_BOND_DEF_STEREO_COUNT>
0

> <PUBCHEM_BOND_UDEF_STEREO_COUNT>
0

> <PUBCHEM_ISOTOPIC_ATOM_COUNT>
0

> <PUBCHEM_COMPONENT_COUNT>
1

> <PUBCHEM_CACTVS_TAUTO_COUNT>
5

> <PUBCHEM_COORDINATE_TYPE>
1
5
255

> <PUBCHEM_BONDANNOTATIONS>
9  1  6
18  19  8
18  20  8
19  21  8
20  22  8
21  23  8
22  23  8
28  31  8
28  32  8
29  30  8
29  34  8
3  36  8
3  4  8
30  35  8
32  33  8
34  37  8
35  38  8
37  38  8
4  27  8
5  27  8
5  36  8
6  31  8
6  7  8
7  33  8

$$$$
71226662
  -OEChem-03012215082D

 58 62  0     1  0  0  0  0  0999 V2000
    2.9940    2.9503    0.0000 O   0  0  0  0  0  0  0  0  0  0  0  0
    5.3460   -4.1027    0.0000 O   0  0  0  0  0  0  0  0  0  0  0  0
    4.4955    3.8137    0.0000 N   0  0  0  0  0  0  0  0  0  0  0  0
    3.8250    1.7484    0.0000 N   0  0  0  0  0  0  0  0  0  0  0  0
    5.3548    1.2484    0.0000 N   0  0  0  0  0  0  0  0  0  0  0  0
    2.0930    0.7485    0.0000 N   0  0  0  0  0  0  0  0  0  0  0  0
    2.9590   -0.7515    0.0000 N   0  0  0  0  0  0  0  0  0  0  0  0
    6.9924   -3.5646    0.0000 N   0  0  0  0  0  0  0  0  0  0  0  0
    8.2816   -4.7213    0.0000 N   0  0  0  0  0  0  0  0  0  0  0  0
    5.0819    3.0037    0.0000 C   0  0  1  0  0  0  0  0  0  0  0  0
    6.0335    3.3111    0.0000 C   0  0  0  0  0  0  0  0  0  0  0  0
    6.0352    4.3111    0.0000 C   0  0  0  0  0  0  0  0  0  0  0  0
    5.0847    4.6217    0.0000 C   0  0  0  0  0  0  0  0  0  0  0  0
    4.7712    2.0532    0.0000 C   0  0  0  0  0  0  0  0  0  0  0  0
    3.8250    0.7485    0.0000 C   0  0  0  0  0  0  0  0  0  0  0  0
    3.4955    3.8155    0.0000 C   0  0  0  0  0  0  0  0  0  0  0  0
    4.7712    0.4437    0.0000 C   0  0  0  0  0  0  0  0  0  0  0  0
    2.9590    2.2484    0.0000 C   0  0  0  0  0  0  0  0  0  0  0  0
    2.9590    0.2485    0.0000 C   0  0  0  0  0  0  0  0  0  0  0  0
    5.0819   -0.5068    0.0000 C   0  0  0  0  0  0  0  0  0  0  0  0
    2.0930    1.7484    0.0000 C   0  0  0  0  0  0  0  0  0  0  0  0
    2.9970    4.6824    0.0000 C   0  0  0  0  0  0  0  0  0  0  0  0
    6.0604   -0.7130    0.0000 C   0  0  0  0  0  0  0  0  0  0  0  0
    4.4140   -1.2511    0.0000 C   0  0  0  0  0  0  0  0  0  0  0  0
    6.3710   -1.6635    0.0000 C   0  0  0  0  0  0  0  0  0  0  0  0
    4.7247   -2.2016    0.0000 C   0  0  0  0  0  0  0  0  0  0  0  0
    5.7032   -2.4078    0.0000 C   0  0  0  0  0  0  0  0  0  0  0  0
    2.4985    5.5492    0.0000 C   0  0  0  0  0  0  0  0  0  0  0  0
    6.0139   -3.3584    0.0000 C   0  0  0  0  0  0  0  0  0  0  0  0
    2.0000    6.4161    0.0000 C   0  0  0  0  0  0  0  0  0  0  0  0
    7.3030   -4.5151    0.0000 C   0  0  0  0  0  0  0  0  0  0  0  0
    6.6352   -5.2594    0.0000 C   0  0  0  0  0  0  0  0  0  0  0  0
    6.9459   -6.2099    0.0000 C   0  0  0  0  0  0  0  0  0  0  0  0
    8.5922   -5.6718    0.0000 C   0  0  0  0  0  0  0  0  0  0  0  0
    7.9244   -6.4161    0.0000 C   0  0  0  0  0  0  0  0  0  0  0  0
    4.2421    2.8722    0.0000 H   0  0  0  0  0  0  0  0  0  0  0  0
    6.1613    2.7044    0.0000 H   0  0  0  0  0  0  0  0  0  0  0  0
    6.6502    3.3748    0.0000 H   0  0  0  0  0  0  0  0  0  0  0  0
    6.6517    4.2452    0.0000 H   0  0  0  0  0  0  0  0  0  0  0  0
    6.1652    4.9173    0.0000 H   0  0  0  0  0  0  0  0  0  0  0  0
    5.3378    5.1877    0.0000 H   0  0  0  0  0  0  0  0  0  0  0  0
    4.5483    4.9327    0.0000 H   0  0  0  0  0  0  0  0  0  0  0  0
    2.9590    2.8684    0.0000 H   0  0  0  0  0  0  0  0  0  0  0  0
    1.5560    2.0584    0.0000 H   0  0  0  0  0  0  0  0  0  0  0  0
    6.4744   -0.2516    0.0000 H   0  0  0  0  0  0  0  0  0  0  0  0
    3.8074   -1.1232    0.0000 H   0  0  0  0  0  0  0  0  0  0  0  0
    2.4220   -1.0616    0.0000 H   0  0  0  0  0  0  0  0  0  0  0  0
    3.4959   -1.0616    0.0000 H   0  0  0  0  0  0  0  0  0  0  0  0
    6.9777   -1.7914    0.0000 H   0  0  0  0  0  0  0  0  0  0  0  0
    4.3106   -2.6631    0.0000 H   0  0  0  0  0  0  0  0  0  0  0  0
    2.5375    6.7252    0.0000 H   0  0  0  0  0  0  0  0  0  0  0  0
    1.6909    6.9536    0.0000 H   0  0  0  0  0  0  0  0  0  0  0  0
    1.4625    6.1071    0.0000 H   0  0  0  0  0  0  0  0  0  0  0  0
    7.4064   -3.1031    0.0000 H   0  0  0  0  0  0  0  0  0  0  0  0
    6.0285   -5.1315    0.0000 H   0  0  0  0  0  0  0  0  0  0  0  0
    6.5318   -6.6714    0.0000 H   0  0  0  0  0  0  0  0  0  0  0  0
    9.1989   -5.7997    0.0000 H   0  0  0  0  0  0  0  0  0  0  0  0
    8.1170   -7.0055    0.0000 H   0  0  0  0  0  0  0  0  0  0  0  0
  1 16  2  0  0  0  0
  2 29  2  0  0  0  0
  3 10  1  0  0  0  0
  3 13  1  0  0  0  0
  3 16  1  0  0  0  0
  4 14  1  0  0  0  0
  4 15  1  0  0  0  0
  4 18  1  0  0  0  0
  5 14  2  0  0  0  0
  5 17  1  0  0  0  0
  6 19  2  0  0  0  0
  6 21  1  0  0  0  0
  7 19  1  0  0  0  0
  7 47  1  0  0  0  0
  7 48  1  0  0  0  0
  8 29  1  0  0  0  0
  8 31  1  0  0  0  0
  8 54  1  0  0  0  0
  9 31  1  0  0  0  0
  9 34  2  0  0  0  0
 10 11  1  0  0  0  0
 10 14  1  0  0  0  0
 10 36  1  6  0  0  0
 11 12  1  0  0  0  0
 11 37  1  0  0  0  0
 11 38  1  0  0  0  0
 12 13  1  0  0  0  0
 12 39  1  0  0  0  0
 12 40  1  0  0  0  0
 13 41  1  0  0  0  0
 13 42  1  0  0  0  0
 15 17  2  0  0  0  0
 15 19  1  0  0  0  0
 16 22  1  0  0  0  0
 17 20  1  0  0  0  0
 18 21  2  0  0  0  0
 18 43  1  0  0  0  0
 20 23  2  0  0  0  0
 20 24  1  0  0  0  0
 21 44  1  0  0  0  0
 22 28  3  0  0  0  0
 23 25  1  0  0  0  0
 23 45  1  0  0  0  0
 24 26  2  0  0  0  0
 24 46  1  0  0  0  0
 25 27  2  0  0  0  0
 25 49  1  0  0  0  0
 26 27  1  0  0  0  0
 26 50  1  0  0  0  0
 27 29  1  0  0  0  0
 28 30  1  0  0  0  0
 30 51  1  0  0  0  0
 30 52  1  0  0  0  0
 30 53  1  0  0  0  0
 31 32  2  0  0  0  0
 32 33  1  0  0  0  0
 32 55  1  0  0  0  0
 33 35  2  0  0  0  0
 33 56  1  0  0  0  0
 34 35  1  0  0  0  0
 34 57  1  0  0  0  0
 35 58  1  0  0  0  0
M  END
> <PUBCHEM_COMPOUND_CID>
71226662

> <PUBCHEM_COMPOUND_CANONICALIZED>
1

> <PUBCHEM_CACTVS_COMPLEXITY>
845

> <PUBCHEM_CACTVS_HBOND_ACCEPTOR>
6

> <PUBCHEM_CACTVS_HBOND_DONOR>
2

> <PUBCHEM_CACTVS_ROTATABLE_BOND>
4

> <PUBCHEM_CACTVS_SUBSKEYS>
AAADceB7sAAAAAAAAAAAAAAAAAAAAWLAAAA8WIAAAAAAAFgB/AAAHgAQAAAADCjBnwQ/8LfMGADoEzd3dACCgC01EqAJ2CE4dNiIaPLA3dGUJQholwLIyacYiMCOQAAAAAAAAACAAAAAAAAAAAAAAAAAAA==

> <PUBCHEM_IUPAC_OPENEYE_NAME>
4-[8-amino-3-[(2S)-1-but-2-ynoylpyrrolidin-2-yl]imidazo[1,5-a]pyrazin-1-yl]-N-(2-pyridyl)benzamide

> <PUBCHEM_IUPAC_CAS_NAME>
4-[8-amino-3-[(2S)-1-(1-oxobut-2-ynyl)-2-pyrrolidinyl]-1-imidazo[1,5-a]pyrazinyl]-N-(2-pyridinyl)benzamide

> <PUBCHEM_IUPAC_NAME_MARKUP>
4-[8-amino-3-[(2<I>S</I>)-1-but-2-ynoylpyrrolidin-2-yl]imidazo[1,5-a]pyrazin-1-yl]-<I>N</I>-pyridin-2-ylbenzamide

> <PUBCHEM_IUPAC_NAME>
4-[8-amino-3-[(2S)-1-but-2-ynoylpyrrolidin-2-yl]imidazo[1,5-a]pyrazin-1-yl]-N-pyridin-2-ylbenzamide

> <PUBCHEM_IUPAC_SYSTEMATIC_NAME>
4-[8-azanyl-3-[(2S)-1-but-2-ynoylpyrrolidin-2-yl]imidazo[1,5-a]pyrazin-1-yl]-N-pyridin-2-yl-benzamide

> <PUBCHEM_IUPAC_TRADITIONAL_NAME>
4-[8-amino-3-[(2S)-1-but-2-ynoylpyrrolidin-2-yl]imidazo[1,5-a]pyrazin-1-yl]-N-(2-pyridyl)benzamide

> <PUBCHEM_IUPAC_INCHI>
InChI=1S/C26H23N7O2/c1-2-6-21(34)32-15-5-7-19(32)25-31-22(23-24(27)29-14-16-33(23)25)17-9-11-18(12-10-17)26(35)30-20-8-3-4-13-28-20/h3-4,8-14,16,19H,5,7,15H2,1H3,(H2,27,29)(H,28,30,35)/t19-/m0/s1

> <PUBCHEM_IUPAC_INCHIKEY>
WDENQIQQYWYTPO-IBGZPJMESA-N

> <PUBCHEM_XLOGP3_AA>
3

> <PUBCHEM_EXACT_MASS>
465.19132300

> <PUBCHEM_MOLECULAR_FORMULA>
C26H23N7O2

> <PUBCHEM_MOLECULAR_WEIGHT>
465.5

> <PUBCHEM_OPENEYE_CAN_SMILES>
CC#CC(=O)N1CCCC1C2=NC(=C3N2C=CN=C3N)C4=CC=C(C=C4)C(=O)NC5=CC=CC=N5

> <PUBCHEM_OPENEYE_ISO_SMILES>
CC#CC(=O)N1CCC[C@H]1C2=NC(=C3N2C=CN=C3N)C4=CC=C(C=C4)C(=O)NC5=CC=CC=N5

> <PUBCHEM_CACTVS_TPSA>
119

> <PUBCHEM_MONOISOTOPIC_WEIGHT>
465.19132300

> <PUBCHEM_TOTAL_CHARGE>
0

> <PUBCHEM_HEAVY_ATOM_COUNT>
35

> <PUBCHEM_ATOM_DEF_STEREO_COUNT>
1

> <PUBCHEM_ATOM_UDEF_STEREO_COUNT>
0

> <PUBCHEM_BOND_DEF_STEREO_COUNT>
0

> <PUBCHEM_BOND_UDEF_STEREO_COUNT>
0

> <PUBCHEM_ISOTOPIC_ATOM_COUNT>
0

> <PUBCHEM_COMPONENT_COUNT>
1

> <PUBCHEM_CACTVS_TAUTO_COUNT>
6

> <PUBCHEM_COORDINATE_TYPE>
1
5
255

> <PUBCHEM_BONDANNOTATIONS>
10  36  6
15  17  8
15  19  8
18  21  8
20  23  8
20  24  8
23  25  8
24  26  8
25  27  8
26  27  8
31  32  8
32  33  8
33  35  8
34  35  8
4  14  8
4  15  8
4  18  8
5  14  8
5  17  8
6  19  8
6  21  8
9  31  8
9  34  8

$$$$
3689
  -OEChem-03012215082D

 51 53  0     1  0  0  0  0  0999 V2000
    2.5369   -0.5950    0.0000 O   0  0  0  0  0  0  0  0  0  0  0  0
    3.4030   -5.0950    0.0000 O   0  0  0  0  0  0  0  0  0  0  0  0
    4.2690    0.4050    0.0000 N   0  0  0  0  0  0  0  0  0  0  0  0
    4.2690    2.4050    0.0000 C   0  0  0  0  0  0  0  0  0  0  0  0
    3.4030    1.9050    0.0000 C   0  0  0  0  0  0  0  0  0  0  0  0
    5.1350    1.9050    0.0000 C   0  0  0  0  0  0  0  0  0  0  0  0
    3.4030    0.9050    0.0000 C   0  0  0  0  0  0  0  0  0  0  0  0
    5.1350    0.9050    0.0000 C   0  0  0  0  0  0  0  0  0  0  0  0
    4.2690   -0.5950    0.0000 C   0  0  3  0  0  0  0  0  0  0  0  0
    4.2690    3.4050    0.0000 C   0  0  0  0  0  0  0  0  0  0  0  0
    3.4030   -1.0950    0.0000 C   0  0  3  0  0  0  0  0  0  0  0  0
    5.1350   -1.0950    0.0000 C   0  0  0  0  0  0  0  0  0  0  0  0
    5.1350    3.9050    0.0000 C   0  0  0  0  0  0  0  0  0  0  0  0
    3.4030   -2.0950    0.0000 C   0  0  0  0  0  0  0  0  0  0  0  0
    5.1350    4.9050    0.0000 C   0  0  0  0  0  0  0  0  0  0  0  0
    6.0010    3.4050    0.0000 C   0  0  0  0  0  0  0  0  0  0  0  0
    4.2690   -2.5950    0.0000 C   0  0  0  0  0  0  0  0  0  0  0  0
    2.5369   -2.5950    0.0000 C   0  0  0  0  0  0  0  0  0  0  0  0
    6.0010    5.4050    0.0000 C   0  0  0  0  0  0  0  0  0  0  0  0
    6.8671    3.9050    0.0000 C   0  0  0  0  0  0  0  0  0  0  0  0
    4.2690   -3.5950    0.0000 C   0  0  0  0  0  0  0  0  0  0  0  0
    2.5369   -3.5950    0.0000 C   0  0  0  0  0  0  0  0  0  0  0  0
    6.8671    4.9050    0.0000 C   0  0  0  0  0  0  0  0  0  0  0  0
    3.4030   -4.0950    0.0000 C   0  0  0  0  0  0  0  0  0  0  0  0
    4.8059    2.7150    0.0000 H   0  0  0  0  0  0  0  0  0  0  0  0
    3.1909    2.4876    0.0000 H   0  0  0  0  0  0  0  0  0  0  0  0
    2.7924    1.7973    0.0000 H   0  0  0  0  0  0  0  0  0  0  0  0
    5.7456    1.7973    0.0000 H   0  0  0  0  0  0  0  0  0  0  0  0
    5.3471    2.4876    0.0000 H   0  0  0  0  0  0  0  0  0  0  0  0
    2.7924    1.0127    0.0000 H   0  0  0  0  0  0  0  0  0  0  0  0
    3.1909    0.3224    0.0000 H   0  0  0  0  0  0  0  0  0  0  0  0
    5.3471    0.3224    0.0000 H   0  0  0  0  0  0  0  0  0  0  0  0
    5.7456    1.0127    0.0000 H   0  0  0  0  0  0  0  0  0  0  0  0
    4.8059   -0.2850    0.0000 H   0  0  0  0  0  0  0  0  0  0  0  0
    4.0569    3.9876    0.0000 H   0  0  0  0  0  0  0  0  0  0  0  0
    3.6584    3.2973    0.0000 H   0  0  0  0  0  0  0  0  0  0  0  0
    3.4030   -0.4750    0.0000 H   0  0  0  0  0  0  0  0  0  0  0  0
    4.8250   -1.6319    0.0000 H   0  0  0  0  0  0  0  0  0  0  0  0
    5.6720   -1.4050    0.0000 H   0  0  0  0  0  0  0  0  0  0  0  0
    5.4450   -0.5581    0.0000 H   0  0  0  0  0  0  0  0  0  0  0  0
    2.0000   -0.9050    0.0000 H   0  0  0  0  0  0  0  0  0  0  0  0
    4.5981    5.2150    0.0000 H   0  0  0  0  0  0  0  0  0  0  0  0
    6.0010    2.7850    0.0000 H   0  0  0  0  0  0  0  0  0  0  0  0
    4.8059   -2.2850    0.0000 H   0  0  0  0  0  0  0  0  0  0  0  0
    2.0000   -2.2850    0.0000 H   0  0  0  0  0  0  0  0  0  0  0  0
    6.0010    6.0250    0.0000 H   0  0  0  0  0  0  0  0  0  0  0  0
    7.4040    3.5950    0.0000 H   0  0  0  0  0  0  0  0  0  0  0  0
    4.8059   -3.9050    0.0000 H   0  0  0  0  0  0  0  0  0  0  0  0
    2.0000   -3.9050    0.0000 H   0  0  0  0  0  0  0  0  0  0  0  0
    7.4040    5.2150    0.0000 H   0  0  0  0  0  0  0  0  0  0  0  0
    2.8660   -5.4050    0.0000 H   0  0  0  0  0  0  0  0  0  0  0  0
  1 11  1  0  0  0  0
  1 41  1  0  0  0  0
  2 24  1  0  0  0  0
  2 51  1  0  0  0  0
  3  7  1  0  0  0  0
  3  8  1  0  0  0  0
  3  9  1  0  0  0  0
  4  5  1  0  0  0  0
  4  6  1  0  0  0  0
  4 10  1  0  0  0  0
  4 25  1  0  0  0  0
  5  7  1  0  0  0  0
  5 26  1  0  0  0  0
  5 27  1  0  0  0  0
  6  8  1  0  0  0  0
  6 28  1  0  0  0  0
  6 29  1  0  0  0  0
  7 30  1  0  0  0  0
  7 31  1  0  0  0  0
  8 32  1  0  0  0  0
  8 33  1  0  0  0  0
  9 11  1  0  0  0  0
  9 12  1  0  0  0  0
  9 34  1  0  0  0  0
 10 13  1  0  0  0  0
 10 35  1  0  0  0  0
 10 36  1  0  0  0  0
 11 14  1  0  0  0  0
 11 37  1  0  0  0  0
 12 38  1  0  0  0  0
 12 39  1  0  0  0  0
 12 40  1  0  0  0  0
 13 15  2  0  0  0  0
 13 16  1  0  0  0  0
 14 17  2  0  0  0  0
 14 18  1  0  0  0  0
 15 19  1  0  0  0  0
 15 42  1  0  0  0  0
 16 20  2  0  0  0  0
 16 43  1  0  0  0  0
 17 21  1  0  0  0  0
 17 44  1  0  0  0  0
 18 22  2  0  0  0  0
 18 45  1  0  0  0  0
 19 23  2  0  0  0  0
 19 46  1  0  0  0  0
 20 23  1  0  0  0  0
 20 47  1  0  0  0  0
 21 24  2  0  0  0  0
 21 48  1  0  0  0  0
 22 24  1  0  0  0  0
 22 49  1  0  0  0  0
 23 50  1  0  0  0  0
M  END
> <PUBCHEM_COMPOUND_CID>
3689

> <PUBCHEM_COMPOUND_CANONICALIZED>
1

> <PUBCHEM_CACTVS_COMPLEXITY>
353

> <PUBCHEM_CACTVS_HBOND_ACCEPTOR>
3

> <PUBCHEM_CACTVS_HBOND_DONOR>
2

> <PUBCHEM_CACTVS_ROTATABLE_BOND>
5

> <PUBCHEM_CACTVS_SUBSKEYS>
AAADceB6MAAAAAAAAAAAAAAAAAAAAAAAAAA8YIAAAAAAAAABQAAAHgAACAAADTzhmAYyBoMAAgCAAiBCAAACAAAgIAAIiAAOCIgKNiKCkROEcAAkwBGYmAeQ4OQOIAAAAAAAAABAAAAAAAAAAAAAAAAAAA==

> <PUBCHEM_IUPAC_OPENEYE_NAME>
4-[2-(4-benzyl-1-piperidyl)-1-hydroxy-propyl]phenol

> <PUBCHEM_IUPAC_CAS_NAME>
4-[1-hydroxy-2-[4-(phenylmethyl)-1-piperidinyl]propyl]phenol

> <PUBCHEM_IUPAC_NAME_MARKUP>
4-[2-(4-benzylpiperidin-1-yl)-1-hydroxypropyl]phenol

> <PUBCHEM_IUPAC_NAME>
4-[2-(4-benzylpiperidin-1-yl)-1-hydroxypropyl]phenol

> <PUBCHEM_IUPAC_SYSTEMATIC_NAME>
4-[1-oxidanyl-2-[4-(phenylmethyl)piperidin-1-yl]propyl]phenol

> <PUBCHEM_IUPAC_TRADITIONAL_NAME>
4-[2-(4-benzylpiperidino)-1-hydroxy-propyl]phenol

> <PUBCHEM_IUPAC_INCHI>
InChI=1S/C21H27NO2/c1-16(21(24)19-7-9-20(23)10-8-19)22-13-11-18(12-14-22)15-17-5-3-2-4-6-17/h2-10,16,18,21,23-24H,11-15H2,1H3

> <PUBCHEM_IUPAC_INCHIKEY>
UYNVMODNBIQBMV-UHFFFAOYSA-N

> <PUBCHEM_XLOGP3_AA>
3.9

> <PUBCHEM_EXACT_MASS>
325.204179104

> <PUBCHEM_MOLECULAR_FORMULA>
C21H27NO2

> <PUBCHEM_MOLECULAR_WEIGHT>
325.4

> <PUBCHEM_OPENEYE_CAN_SMILES>
CC(C(C1=CC=C(C=C1)O)O)N2CCC(CC2)CC3=CC=CC=C3

> <PUBCHEM_OPENEYE_ISO_SMILES>
CC(C(C1=CC=C(C=C1)O)O)N2CCC(CC2)CC3=CC=CC=C3

> <PUBCHEM_CACTVS_TPSA>
43.7

> <PUBCHEM_MONOISOTOPIC_WEIGHT>
325.204179104

> <PUBCHEM_TOTAL_CHARGE>
0

> <PUBCHEM_HEAVY_ATOM_COUNT>
24

> <PUBCHEM_ATOM_DEF_STEREO_COUNT>
0

> <PUBCHEM_ATOM_UDEF_STEREO_COUNT>
2

> <PUBCHEM_BOND_DEF_STEREO_COUNT>
0

> <PUBCHEM_BOND_UDEF_STEREO_COUNT>
0

> <PUBCHEM_ISOTOPIC_ATOM_COUNT>
0

> <PUBCHEM_COMPONENT_COUNT>
1

> <PUBCHEM_CACTVS_TAUTO_COUNT>
2

> <PUBCHEM_COORDINATE_TYPE>
1
5
255

> <PUBCHEM_BONDANNOTATIONS>
11  1  3
13  15  8
13  16  8
14  17  8
14  18  8
15  19  8
16  20  8
17  21  8
18  22  8
19  23  8
20  23  8
21  24  8
22  24  8
9  12  3

$$$$
72734520
  -OEChem-03012215082D

 62 66  0     0  0  0  0  0  0999 V2000
    4.5981   -3.6900    0.0000 F   0  0  0  0  0  0  0  0  0  0  0  0
    9.7942   -0.6900    0.0000 O   0  0  0  0  0  0  0  0  0  0  0  0
    9.7942    2.3100    0.0000 O   0  0  0  0  0  0  0  0  0  0  0  0
    4.5981   -1.6900    0.0000 N   0  0  0  0  0  0  0  0  0  0  0  0
    2.8660   -0.6900    0.0000 N   0  0  0  0  0  0  0  0  0  0  0  0
    8.0622   -3.6900    0.0000 N   0  0  0  0  0  0  0  0  0  0  0  0
    9.7942   -3.6900    0.0000 N   0  0  0  0  0  0  0  0  0  0  0  0
    8.9282   -2.1900    0.0000 N   0  0  0  0  0  0  0  0  0  0  0  0
   11.6065   -3.4947    0.0000 N   0  0  0  0  0  0  0  0  0  0  0  0
    8.0622    2.3100    0.0000 N   0  0  0  0  0  0  0  0  0  0  0  0
    3.7320   -2.1900    0.0000 C   0  0  0  0  0  0  0  0  0  0  0  0
    4.5981   -0.6900    0.0000 C   0  0  0  0  0  0  0  0  0  0  0  0
    2.8660   -1.6900    0.0000 C   0  0  0  0  0  0  0  0  0  0  0  0
    3.7320   -0.1900    0.0000 C   0  0  0  0  0  0  0  0  0  0  0  0
    5.4641   -2.1900    0.0000 C   0  0  0  0  0  0  0  0  0  0  0  0
    2.0000   -0.1900    0.0000 C   0  0  0  0  0  0  0  0  0  0  0  0
    5.4641   -3.1900    0.0000 C   0  0  0  0  0  0  0  0  0  0  0  0
    6.3301   -1.6900    0.0000 C   0  0  0  0  0  0  0  0  0  0  0  0
    6.3301   -3.6900    0.0000 C   0  0  0  0  0  0  0  0  0  0  0  0
    7.1962   -2.1900    0.0000 C   0  0  0  0  0  0  0  0  0  0  0  0
    7.1962   -3.1900    0.0000 C   0  0  0  0  0  0  0  0  0  0  0  0
    8.9282   -3.1900    0.0000 C   0  0  0  0  0  0  0  0  0  0  0  0
   10.6603   -2.1900    0.0000 C   0  0  0  0  0  0  0  0  0  0  0  0
   10.6603   -3.1900    0.0000 C   0  0  0  0  0  0  0  0  0  0  0  0
    9.7942   -1.6900    0.0000 C   0  0  0  0  0  0  0  0  0  0  0  0
   11.6065   -1.8853    0.0000 C   0  0  0  0  0  0  0  0  0  0  0  0
   12.1901   -2.6900    0.0000 C   0  0  0  0  0  0  0  0  0  0  0  0
    8.9282   -0.1900    0.0000 C   0  0  0  0  0  0  0  0  0  0  0  0
    8.9282    0.8100    0.0000 C   0  0  0  0  0  0  0  0  0  0  0  0
    8.0622   -0.6900    0.0000 C   0  0  0  0  0  0  0  0  0  0  0  0
    8.0622    1.3100    0.0000 C   0  0  0  0  0  0  0  0  0  0  0  0
    7.1962    0.8100    0.0000 C   0  0  0  0  0  0  0  0  0  0  0  0
    7.1962   -0.1900    0.0000 C   0  0  0  0  0  0  0  0  0  0  0  0
    8.9282    2.8100    0.0000 C   0  0  0  0  0  0  0  0  0  0  0  0
    8.9282    3.8100    0.0000 C   0  0  0  0  0  0  0  0  0  0  0  0
    9.7942    4.3100    0.0000 C   0  0  0  0  0  0  0  0  0  0  0  0
    3.3335   -2.6650    0.0000 H   0  0  0  0  0  0  0  0  0  0  0  0
    4.1306   -2.6650    0.0000 H   0  0  0  0  0  0  0  0  0  0  0  0
    5.2087   -0.7977    0.0000 H   0  0  0  0  0  0  0  0  0  0  0  0
    4.8101   -0.1074    0.0000 H   0  0  0  0  0  0  0  0  0  0  0  0
    2.2554   -1.5823    0.0000 H   0  0  0  0  0  0  0  0  0  0  0  0
    2.6540   -2.2726    0.0000 H   0  0  0  0  0  0  0  0  0  0  0  0
    4.1306    0.2849    0.0000 H   0  0  0  0  0  0  0  0  0  0  0  0
    3.3335    0.2849    0.0000 H   0  0  0  0  0  0  0  0  0  0  0  0
    2.3100    0.3469    0.0000 H   0  0  0  0  0  0  0  0  0  0  0  0
    1.4631    0.1200    0.0000 H   0  0  0  0  0  0  0  0  0  0  0  0
    1.6900   -0.7269    0.0000 H   0  0  0  0  0  0  0  0  0  0  0  0
    6.3301   -1.0700    0.0000 H   0  0  0  0  0  0  0  0  0  0  0  0
    6.3301   -4.3100    0.0000 H   0  0  0  0  0  0  0  0  0  0  0  0
    7.7331   -1.8800    0.0000 H   0  0  0  0  0  0  0  0  0  0  0  0
    8.0622   -4.3100    0.0000 H   0  0  0  0  0  0  0  0  0  0  0  0
   11.7991   -1.2960    0.0000 H   0  0  0  0  0  0  0  0  0  0  0  0
   11.7991   -4.0841    0.0000 H   0  0  0  0  0  0  0  0  0  0  0  0
   12.8101   -2.6900    0.0000 H   0  0  0  0  0  0  0  0  0  0  0  0
    9.4651    1.1200    0.0000 H   0  0  0  0  0  0  0  0  0  0  0  0
    8.0622   -1.3100    0.0000 H   0  0  0  0  0  0  0  0  0  0  0  0
    6.6592    1.1200    0.0000 H   0  0  0  0  0  0  0  0  0  0  0  0
    6.6592   -0.5000    0.0000 H   0  0  0  0  0  0  0  0  0  0  0  0
    7.5252    2.6200    0.0000 H   0  0  0  0  0  0  0  0  0  0  0  0
    8.3913    4.1200    0.0000 H   0  0  0  0  0  0  0  0  0  0  0  0
   10.3312    4.0000    0.0000 H   0  0  0  0  0  0  0  0  0  0  0  0
    9.7942    4.9300    0.0000 H   0  0  0  0  0  0  0  0  0  0  0  0
  1 17  1  0  0  0  0
  2 25  1  0  0  0  0
  2 28  1  0  0  0  0
  3 34  2  0  0  0  0
  4 11  1  0  0  0  0
  4 12  1  0  0  0  0
  4 15  1  0  0  0  0
  5 13  1  0  0  0  0
  5 14  1  0  0  0  0
  5 16  1  0  0  0  0
  6 21  1  0  0  0  0
  6 22  1  0  0  0  0
  6 51  1  0  0  0  0
  7 22  2  0  0  0  0
  7 24  1  0  0  0  0
  8 22  1  0  0  0  0
  8 25  2  0  0  0  0
  9 24  1  0  0  0  0
  9 27  1  0  0  0  0
  9 53  1  0  0  0  0
 10 31  1  0  0  0  0
 10 34  1  0  0  0  0
 10 59  1  0  0  0  0
 11 13  1  0  0  0  0
 11 37  1  0  0  0  0
 11 38  1  0  0  0  0
 12 14  1  0  0  0  0
 12 39  1  0  0  0  0
 12 40  1  0  0  0  0
 13 41  1  0  0  0  0
 13 42  1  0  0  0  0
 14 43  1  0  0  0  0
 14 44  1  0  0  0  0
 15 17  2  0  0  0  0
 15 18  1  0  0  0  0
 16 45  1  0  0  0  0
 16 46  1  0  0  0  0
 16 47  1  0  0  0  0
 17 19  1  0  0  0  0
 18 20  2  0  0  0  0
 18 48  1  0  0  0  0
 19 21  2  0  0  0  0
 19 49  1  0  0  0  0
 20 21  1  0  0  0  0
 20 50  1  0  0  0  0
 23 24  2  0  0  0  0
 23 25  1  0  0  0  0
 23 26  1  0  0  0  0
 26 27  2  0  0  0  0
 26 52  1  0  0  0  0
 27 54  1  0  0  0  0
 28 29  1  0  0  0  0
 28 30  2  0  0  0  0
 29 31  2  0  0  0  0
 29 55  1  0  0  0  0
 30 33  1  0  0  0  0
 30 56  1  0  0  0  0
 31 32  1  0  0  0  0
 32 33  2  0  0  0  0
 32 57  1  0  0  0  0
 33 58  1  0  0  0  0
 34 35  1  0  0  0  0
 35 36  2  0  0  0  0
 35 60  1  0  0  0  0
 36 61  1  0  0  0  0
 36 62  1  0  0  0  0
M  END
> <PUBCHEM_COMPOUND_CID>
72734520

> <PUBCHEM_COMPOUND_CANONICALIZED>
1

> <PUBCHEM_CACTVS_COMPLEXITY>
752

> <PUBCHEM_CACTVS_HBOND_ACCEPTOR>
8

> <PUBCHEM_CACTVS_HBOND_DONOR>
3

> <PUBCHEM_CACTVS_ROTATABLE_BOND>
7

> <PUBCHEM_CACTVS_SUBSKEYS>
AAADceB7sQAAAAAAAAAAAAAAAAAAAWAAAAA8eIEAAAAAAFgB/AAAHwAQAAAADAzBmww/9t/JlACoAjd3dACCiCmxIqAJ2aA+bNiMbuLE+duePCju1BvI6KewUAMIAACAAgAAAAAAAQAEAAAAAAAAAAAAAA==

> <PUBCHEM_IUPAC_OPENEYE_NAME>
N-[3-[[2-[3-fluoro-4-(4-methylpiperazin-1-yl)anilino]-7H-pyrrolo[2,3-d]pyrimidin-4-yl]oxy]phenyl]prop-2-enamide

> <PUBCHEM_IUPAC_CAS_NAME>
N-[3-[[2-[3-fluoro-4-(4-methyl-1-piperazinyl)anilino]-7H-pyrrolo[2,3-d]pyrimidin-4-yl]oxy]phenyl]-2-propenamide

> <PUBCHEM_IUPAC_NAME_MARKUP>
<I>N</I>-[3-[[2-[3-fluoro-4-(4-methylpiperazin-1-yl)anilino]-7<I>H</I>-pyrrolo[2,3-d]pyrimidin-4-yl]oxy]phenyl]prop-2-enamide

> <PUBCHEM_IUPAC_NAME>
N-[3-[[2-[3-fluoro-4-(4-methylpiperazin-1-yl)anilino]-7H-pyrrolo[2,3-d]pyrimidin-4-yl]oxy]phenyl]prop-2-enamide

> <PUBCHEM_IUPAC_SYSTEMATIC_NAME>
N-[3-[[2-[[3-fluoranyl-4-(4-methylpiperazin-1-yl)phenyl]amino]-7H-pyrrolo[2,3-d]pyrimidin-4-yl]oxy]phenyl]prop-2-enamide

> <PUBCHEM_IUPAC_TRADITIONAL_NAME>
N-[3-[[2-[3-fluoro-4-(4-methylpiperazino)anilino]-7H-pyrrolo[2,3-d]pyrimidin-4-yl]oxy]phenyl]acrylamide

> <PUBCHEM_IUPAC_INCHI>
InChI=1S/C26H26FN7O2/c1-3-23(35)29-17-5-4-6-19(15-17)36-25-20-9-10-28-24(20)31-26(32-25)30-18-7-8-22(21(27)16-18)34-13-11-33(2)12-14-34/h3-10,15-16H,1,11-14H2,2H3,(H,29,35)(H2,28,30,31,32)

> <PUBCHEM_IUPAC_INCHIKEY>
UOFYSRZSLXWIQB-UHFFFAOYSA-N

> <PUBCHEM_XLOGP3_AA>
4.2

> <PUBCHEM_EXACT_MASS>
487.21320126

> <PUBCHEM_MOLECULAR_FORMULA>
C26H26FN7O2

> <PUBCHEM_MOLECULAR_WEIGHT>
487.5

> <PUBCHEM_OPENEYE_CAN_SMILES>
CN1CCN(CC1)C2=C(C=C(C=C2)NC3=NC4=C(C=CN4)C(=N3)OC5=CC=CC(=C5)NC(=O)C=C)F

> <PUBCHEM_OPENEYE_ISO_SMILES>
CN1CCN(CC1)C2=C(C=C(C=C2)NC3=NC4=C(C=CN4)C(=N3)OC5=CC=CC(=C5)NC(=O)C=C)F

> <PUBCHEM_CACTVS_TPSA>
98.4

> <PUBCHEM_MONOISOTOPIC_WEIGHT>
487.21320126

> <PUBCHEM_TOTAL_CHARGE>
0

> <PUBCHEM_HEAVY_ATOM_COUNT>
36

> <PUBCHEM_ATOM_DEF_STEREO_COUNT>
0

> <PUBCHEM_ATOM_UDEF_STEREO_COUNT>
0

> <PUBCHEM_BOND_DEF_STEREO_COUNT>
0

> <PUBCHEM_BOND_UDEF_STEREO_COUNT>
0

> <PUBCHEM_ISOTOPIC_ATOM_COUNT>
0

> <PUBCHEM_COMPONENT_COUNT>
1

> <PUBCHEM_CACTVS_TAUTO_COUNT>
-1

> <PUBCHEM_COORDINATE_TYPE>
1
5
255

> <PUBCHEM_BONDANNOTATIONS>
15  17  8
15  18  8
17  19  8
18  20  8
19  21  8
20  21  8
23  24  8
23  25  8
23  26  8
26  27  8
28  29  8
28  30  8
29  31  8
30  33  8
31  32  8
32  33  8
7  22  8
7  24  8
8  22  8
8  25  8
9  24  8
9  27  8

$$$$
54752934
  -OEChem-03012215082D

 58 59  0     1  0  0  0  0  0999 V2000
   10.0497    1.1151    0.0000 O   0  0  0  0  0  0  0  0  0  0  0  0
    5.4641    3.5000    0.0000 O   0  0  0  0  0  0  0  0  0  0  0  0
    8.0622    4.0000    0.0000 O   0  0  0  0  0  0  0  0  0  0  0  0
    3.7320   -0.5000    0.0000 O   0  0  0  0  0  0  0  0  0  0  0  0
    2.8660    1.0000    0.0000 O   0  0  0  0  0  0  0  0  0  0  0  0
   10.5109    2.8364    0.0000 N   0  0  0  0  0  0  0  0  0  0  0  0
    6.3301    2.0000    0.0000 N   0  0  0  0  0  0  0  0  0  0  0  0
    4.5981    1.0000    0.0000 N   0  0  0  0  0  0  0  0  0  0  0  0
    8.9282    2.5000    0.0000 C   0  0  3  0  0  0  0  0  0  0  0  0
    8.0622    2.0000    0.0000 C   0  0  0  0  0  0  0  0  0  0  0  0
    9.0327    3.4945    0.0000 C   0  0  0  0  0  0  0  0  0  0  0  0
    7.1962    2.5000    0.0000 C   0  0  1  0  0  0  0  0  0  0  0  0
   10.0109    3.7024    0.0000 C   0  0  0  0  0  0  0  0  0  0  0  0
    9.8418    2.0933    0.0000 C   0  0  0  0  0  0  0  0  0  0  0  0
    4.5981    2.0000    0.0000 C   0  0  1  0  0  0  0  0  0  0  0  0
    3.7320    2.5000    0.0000 C   0  0  0  0  0  0  0  0  0  0  0  0
    3.7320    3.5000    0.0000 C   0  0  0  0  0  0  0  0  0  0  0  0
    5.4641    2.5000    0.0000 C   0  0  0  0  0  0  0  0  0  0  0  0
    7.1962    3.5000    0.0000 C   0  0  0  0  0  0  0  0  0  0  0  0
    2.8660    4.0000    0.0000 C   0  0  0  0  0  0  0  0  0  0  0  0
    4.5981    4.0000    0.0000 C   0  0  0  0  0  0  0  0  0  0  0  0
    3.7320    0.5000    0.0000 C   0  0  0  0  0  0  0  0  0  0  0  0
    2.8660   -1.0000    0.0000 C   0  0  0  0  0  0  0  0  0  0  0  0
    2.8660   -2.0000    0.0000 C   0  0  0  0  0  0  0  0  0  0  0  0
    3.7320   -2.5000    0.0000 C   0  0  0  0  0  0  0  0  0  0  0  0
    2.0000   -2.5000    0.0000 C   0  0  0  0  0  0  0  0  0  0  0  0
    3.7320   -3.5000    0.0000 C   0  0  0  0  0  0  0  0  0  0  0  0
    2.0000   -3.5000    0.0000 C   0  0  0  0  0  0  0  0  0  0  0  0
    2.8660   -4.0000    0.0000 C   0  0  0  0  0  0  0  0  0  0  0  0
    8.9606    1.8808    0.0000 H   0  0  0  0  0  0  0  0  0  0  0  0
    7.6636    1.5250    0.0000 H   0  0  0  0  0  0  0  0  0  0  0  0
    8.4607    1.5250    0.0000 H   0  0  0  0  0  0  0  0  0  0  0  0
    8.9679    4.1111    0.0000 H   0  0  0  0  0  0  0  0  0  0  0  0
    8.4127    3.4945    0.0000 H   0  0  0  0  0  0  0  0  0  0  0  0
    6.6592    2.8100    0.0000 H   0  0  0  0  0  0  0  0  0  0  0  0
   10.5773    3.9546    0.0000 H   0  0  0  0  0  0  0  0  0  0  0  0
    9.8193    4.2921    0.0000 H   0  0  0  0  0  0  0  0  0  0  0  0
   11.1275    2.7716    0.0000 H   0  0  0  0  0  0  0  0  0  0  0  0
    5.1350    1.6900    0.0000 H   0  0  0  0  0  0  0  0  0  0  0  0
    3.1215    2.6077    0.0000 H   0  0  0  0  0  0  0  0  0  0  0  0
    3.5200    1.9174    0.0000 H   0  0  0  0  0  0  0  0  0  0  0  0
    6.3301    1.3800    0.0000 H   0  0  0  0  0  0  0  0  0  0  0  0
    3.7320    4.1200    0.0000 H   0  0  0  0  0  0  0  0  0  0  0  0
    6.6592    3.8100    0.0000 H   0  0  0  0  0  0  0  0  0  0  0  0
    5.1350    0.6900    0.0000 H   0  0  0  0  0  0  0  0  0  0  0  0
    3.1760    4.5369    0.0000 H   0  0  0  0  0  0  0  0  0  0  0  0
    2.3291    4.3100    0.0000 H   0  0  0  0  0  0  0  0  0  0  0  0
    2.5560    3.4631    0.0000 H   0  0  0  0  0  0  0  0  0  0  0  0
    4.9081    3.4631    0.0000 H   0  0  0  0  0  0  0  0  0  0  0  0
    5.1350    4.3100    0.0000 H   0  0  0  0  0  0  0  0  0  0  0  0
    4.2881    4.5369    0.0000 H   0  0  0  0  0  0  0  0  0  0  0  0
    2.6540   -0.4174    0.0000 H   0  0  0  0  0  0  0  0  0  0  0  0
    2.2554   -1.1077    0.0000 H   0  0  0  0  0  0  0  0  0  0  0  0
    4.2690   -2.1900    0.0000 H   0  0  0  0  0  0  0  0  0  0  0  0
    1.4631   -2.1900    0.0000 H   0  0  0  0  0  0  0  0  0  0  0  0
    4.2690   -3.8100    0.0000 H   0  0  0  0  0  0  0  0  0  0  0  0
    1.4631   -3.8100    0.0000 H   0  0  0  0  0  0  0  0  0  0  0  0
    2.8660   -4.6200    0.0000 H   0  0  0  0  0  0  0  0  0  0  0  0
  1 14  2  0  0  0  0
  2 18  2  0  0  0  0
  3 19  2  0  0  0  0
  4 22  1  0  0  0  0
  4 23  1  0  0  0  0
  5 22  2  0  0  0  0
  6 13  1  0  0  0  0
  6 14  1  0  0  0  0
  6 38  1  0  0  0  0
 12  7  1  6  0  0  0
  7 18  1  0  0  0  0
  7 42  1  0  0  0  0
 15  8  1  1  0  0  0
  8 22  1  0  0  0  0
  8 45  1  0  0  0  0
  9 10  1  0  0  0  0
  9 11  1  0  0  0  0
  9 14  1  0  0  0  0
  9 30  1  0  0  0  0
 10 12  1  0  0  0  0
 10 31  1  0  0  0  0
 10 32  1  0  0  0  0
 11 13  1  0  0  0  0
 11 33  1  0  0  0  0
 11 34  1  0  0  0  0
 12 19  1  0  0  0  0
 12 35  1  0  0  0  0
 13 36  1  0  0  0  0
 13 37  1  0  0  0  0
 15 16  1  0  0  0  0
 15 18  1  0  0  0  0
 15 39  1  0  0  0  0
 16 17  1  0  0  0  0
 16 40  1  0  0  0  0
 16 41  1  0  0  0  0
 17 20  1  0  0  0  0
 17 21  1  0  0  0  0
 17 43  1  0  0  0  0
 19 44  1  0  0  0  0
 20 46  1  0  0  0  0
 20 47  1  0  0  0  0
 20 48  1  0  0  0  0
 21 49  1  0  0  0  0
 21 50  1  0  0  0  0
 21 51  1  0  0  0  0
 23 24  1  0  0  0  0
 23 52  1  0  0  0  0
 23 53  1  0  0  0  0
 24 25  2  0  0  0  0
 24 26  1  0  0  0  0
 25 27  1  0  0  0  0
 25 54  1  0  0  0  0
 26 28  2  0  0  0  0
 26 55  1  0  0  0  0
 27 29  2  0  0  0  0
 27 56  1  0  0  0  0
 28 29  1  0  0  0  0
 28 57  1  0  0  0  0
 29 58  1  0  0  0  0
M  END
> <PUBCHEM_COMPOUND_CID>
54752934

> <PUBCHEM_COMPOUND_CANONICALIZED>
1

> <PUBCHEM_CACTVS_COMPLEXITY>
575

> <PUBCHEM_CACTVS_HBOND_ACCEPTOR>
5

> <PUBCHEM_CACTVS_HBOND_DONOR>
3

> <PUBCHEM_CACTVS_ROTATABLE_BOND>
11

> <PUBCHEM_CACTVS_SUBSKEYS>
AAADceB7OAAAAAAAAAAAAAAAAAAAAWAAAAAwAAAAAAAAAAABAAAAHgAQAAAADSjhmAYyCILABACIAilSmAACAAAgAAAIiIGICIkIZjKAsTicMAAk1gGIqAecyyAOAAAAAAAAAAAAAAAAAAAAAAAAAAAAAA==

> <PUBCHEM_IUPAC_OPENEYE_NAME>
benzyl N-[(1S)-1-[[(1S)-1-formyl-2-(2-oxopyrrolidin-3-yl)ethyl]carbamoyl]-3-methyl-butyl]carbamate

> <PUBCHEM_IUPAC_CAS_NAME>
N-[(2S)-4-methyl-1-oxo-1-[[(2S)-1-oxo-3-(2-oxo-3-pyrrolidinyl)propan-2-yl]amino]pentan-2-yl]carbamic acid (phenylmethyl) ester

> <PUBCHEM_IUPAC_NAME_MARKUP>
benzyl <I>N</I>-[(2<I>S</I>)-4-methyl-1-oxo-1-[[(2<I>S</I>)-1-oxo-3-(2-oxopyrrolidin-3-yl)propan-2-yl]amino]pentan-2-yl]carbamate

> <PUBCHEM_IUPAC_NAME>
benzyl N-[(2S)-4-methyl-1-oxo-1-[[(2S)-1-oxo-3-(2-oxopyrrolidin-3-yl)propan-2-yl]amino]pentan-2-yl]carbamate

> <PUBCHEM_IUPAC_SYSTEMATIC_NAME>
(phenylmethyl) N-[(2S)-4-methyl-1-oxidanylidene-1-[[(2S)-1-oxidanylidene-3-(2-oxidanylidenepyrrolidin-3-yl)propan-2-yl]amino]pentan-2-yl]carbamate

> <PUBCHEM_IUPAC_TRADITIONAL_NAME>
N-[(1S)-1-[[(1S)-1-formyl-2-(2-ketopyrrolidin-3-yl)ethyl]carbamoyl]-3-methyl-butyl]carbamic acid benzyl ester

> <PUBCHEM_IUPAC_INCHI>
InChI=1S/C21H29N3O5/c1-14(2)10-18(24-21(28)29-13-15-6-4-3-5-7-15)20(27)23-17(12-25)11-16-8-9-22-19(16)26/h3-7,12,14,16-18H,8-11,13H2,1-2H3,(H,22,26)(H,23,27)(H,24,28)/t16?,17-,18-/m0/s1

> <PUBCHEM_IUPAC_INCHIKEY>
QYENXTYKACLCGO-FQECFTEESA-N

> <PUBCHEM_XLOGP3_AA>
1.8

> <PUBCHEM_EXACT_MASS>
403.21072103

> <PUBCHEM_MOLECULAR_FORMULA>
C21H29N3O5

> <PUBCHEM_MOLECULAR_WEIGHT>
403.5

> <PUBCHEM_OPENEYE_CAN_SMILES>
CC(C)CC(C(=O)NC(CC1CCNC1=O)C=O)NC(=O)OCC2=CC=CC=C2

> <PUBCHEM_OPENEYE_ISO_SMILES>
CC(C)C[C@@H](C(=O)N[C@@H](CC1CCNC1=O)C=O)NC(=O)OCC2=CC=CC=C2

> <PUBCHEM_CACTVS_TPSA>
114

> <PUBCHEM_MONOISOTOPIC_WEIGHT>
403.21072103

> <PUBCHEM_TOTAL_CHARGE>
0

> <PUBCHEM_HEAVY_ATOM_COUNT>
29

> <PUBCHEM_ATOM_DEF_STEREO_COUNT>
2

> <PUBCHEM_ATOM_UDEF_STEREO_COUNT>
1

> <PUBCHEM_BOND_DEF_STEREO_COUNT>
0

> <PUBCHEM_BOND_UDEF_STEREO_COUNT>
0

> <PUBCHEM_ISOTOPIC_ATOM_COUNT>
0

> <PUBCHEM_COMPONENT_COUNT>
1

> <PUBCHEM_CACTVS_TAUTO_COUNT>
-1

> <PUBCHEM_COORDINATE_TYPE>
1
5
255

> <PUBCHEM_BONDANNOTATIONS>
24  25  8
24  26  8
25  27  8
26  28  8
27  29  8
28  29  8
12  7  6
15  8  5
9  10  3

$$$$
71481120
  -OEChem-03012215082D

 64 65  0     1  0  0  0  0  0999 V2000
    8.0622    0.1156    0.0000 S   0  0  0  0  0  0  0  0  0  0  0  0
    8.9282    1.6156    0.0000 O   0  0  0  0  0  0  0  0  0  0  0  0
    7.4236    4.7792    0.0000 O   0  0  0  0  0  0  0  0  0  0  0  0
    8.0622   -0.8844    0.0000 O   0  0  0  0  0  0  0  0  0  0  0  0
    5.4641    2.6156    0.0000 O   0  0  0  0  0  0  0  0  0  0  0  0
    9.0622    0.1156    0.0000 O   0  0  0  0  0  0  0  0  0  0  0  0
    7.0622    0.1156    0.0000 O   0  0  0  0  0  0  0  0  0  0  0  0
    3.7320   -1.3844    0.0000 O   0  0  0  0  0  0  0  0  0  0  0  0
    2.8660    0.1156    0.0000 O   0  0  0  0  0  0  0  0  0  0  0  0
    6.3301    1.1156    0.0000 N   0  0  0  0  0  0  0  0  0  0  0  0
    9.1448    4.3180    0.0000 N   0  0  0  0  0  0  0  0  0  0  0  0
    4.5981    0.1156    0.0000 N   0  0  0  0  0  0  0  0  0  0  0  0
    8.0622    3.1156    0.0000 C   0  0  3  0  0  0  0  0  0  0  0  0
    7.1962    2.6156    0.0000 C   0  0  0  0  0  0  0  0  0  0  0  0
    7.1962    1.6156    0.0000 C   0  0  1  0  0  0  0  0  0  0  0  0
    8.9757    2.7088    0.0000 C   0  0  0  0  0  0  0  0  0  0  0  0
    9.6448    3.4520    0.0000 C   0  0  0  0  0  0  0  0  0  0  0  0
    8.0622    1.1156    0.0000 C   0  0  3  0  0  0  0  0  0  0  0  0
    8.1667    4.1101    0.0000 C   0  0  0  0  0  0  0  0  0  0  0  0
    4.5981    1.1156    0.0000 C   0  0  2  0  0  0  0  0  0  0  0  0
    5.4641    1.6156    0.0000 C   0  0  0  0  0  0  0  0  0  0  0  0
    3.7320    1.6156    0.0000 C   0  0  0  0  0  0  0  0  0  0  0  0
    3.7320    2.6156    0.0000 C   0  0  0  0  0  0  0  0  0  0  0  0
    2.8660    3.1156    0.0000 C   0  0  0  0  0  0  0  0  0  0  0  0
    4.5981    3.1156    0.0000 C   0  0  0  0  0  0  0  0  0  0  0  0
    3.7320   -0.3844    0.0000 C   0  0  0  0  0  0  0  0  0  0  0  0
    2.8660   -1.8844    0.0000 C   0  0  0  0  0  0  0  0  0  0  0  0
    2.8660   -2.8844    0.0000 C   0  0  0  0  0  0  0  0  0  0  0  0
    3.7320   -3.3844    0.0000 C   0  0  0  0  0  0  0  0  0  0  0  0
    2.0000   -3.3844    0.0000 C   0  0  0  0  0  0  0  0  0  0  0  0
    3.7320   -4.3844    0.0000 C   0  0  0  0  0  0  0  0  0  0  0  0
    2.0000   -4.3844    0.0000 C   0  0  0  0  0  0  0  0  0  0  0  0
    2.8660   -4.8844    0.0000 C   0  0  0  0  0  0  0  0  0  0  0  0
    8.0946    2.4964    0.0000 H   0  0  0  0  0  0  0  0  0  0  0  0
    6.9841    3.1982    0.0000 H   0  0  0  0  0  0  0  0  0  0  0  0
    6.5856    2.5079    0.0000 H   0  0  0  0  0  0  0  0  0  0  0  0
    6.6592    1.9256    0.0000 H   0  0  0  0  0  0  0  0  0  0  0  0
    8.6657    2.1719    0.0000 H   0  0  0  0  0  0  0  0  0  0  0  0
    9.4773    2.3444    0.0000 H   0  0  0  0  0  0  0  0  0  0  0  0
   10.0597    2.9912    0.0000 H   0  0  0  0  0  0  0  0  0  0  0  0
   10.1464    3.8164    0.0000 H   0  0  0  0  0  0  0  0  0  0  0  0
    8.0622    1.7356    0.0000 H   0  0  0  0  0  0  0  0  0  0  0  0
    6.3301    0.4956    0.0000 H   0  0  0  0  0  0  0  0  0  0  0  0
    9.3970    4.8844    0.0000 H   0  0  0  0  0  0  0  0  0  0  0  0
    5.1350    0.8056    0.0000 H   0  0  0  0  0  0  0  0  0  0  0  0
    3.1215    1.7232    0.0000 H   0  0  0  0  0  0  0  0  0  0  0  0
    3.5200    1.0330    0.0000 H   0  0  0  0  0  0  0  0  0  0  0  0
    3.7320    3.2356    0.0000 H   0  0  0  0  0  0  0  0  0  0  0  0
    9.4651    1.3056    0.0000 H   0  0  0  0  0  0  0  0  0  0  0  0
    5.1350   -0.1944    0.0000 H   0  0  0  0  0  0  0  0  0  0  0  0
    3.1760    3.6525    0.0000 H   0  0  0  0  0  0  0  0  0  0  0  0
    2.3291    3.4256    0.0000 H   0  0  0  0  0  0  0  0  0  0  0  0
    2.5560    2.5786    0.0000 H   0  0  0  0  0  0  0  0  0  0  0  0
    4.9081    2.5786    0.0000 H   0  0  0  0  0  0  0  0  0  0  0  0
    5.1350    3.4256    0.0000 H   0  0  0  0  0  0  0  0  0  0  0  0
    4.2881    3.6525    0.0000 H   0  0  0  0  0  0  0  0  0  0  0  0
    8.5991   -1.1944    0.0000 H   0  0  0  0  0  0  0  0  0  0  0  0
    2.6540   -1.3018    0.0000 H   0  0  0  0  0  0  0  0  0  0  0  0
    2.2554   -1.9921    0.0000 H   0  0  0  0  0  0  0  0  0  0  0  0
    4.2690   -3.0744    0.0000 H   0  0  0  0  0  0  0  0  0  0  0  0
    1.4631   -3.0744    0.0000 H   0  0  0  0  0  0  0  0  0  0  0  0
    4.2690   -4.6944    0.0000 H   0  0  0  0  0  0  0  0  0  0  0  0
    1.4631   -4.6944    0.0000 H   0  0  0  0  0  0  0  0  0  0  0  0
    2.8660   -5.5044    0.0000 H   0  0  0  0  0  0  0  0  0  0  0  0
  1  4  1  0  0  0  0
  1  6  2  0  0  0  0
  1  7  2  0  0  0  0
  1 18  1  0  0  0  0
  2 18  1  0  0  0  0
  2 49  1  0  0  0  0
  3 19  2  0  0  0  0
  4 57  1  0  0  0  0
  5 21  2  0  0  0  0
  8 26  1  0  0  0  0
  8 27  1  0  0  0  0
  9 26  2  0  0  0  0
 15 10  1  1  0  0  0
 10 21  1  0  0  0  0
 10 43  1  0  0  0  0
 11 17  1  0  0  0  0
 11 19  1  0  0  0  0
 11 44  1  0  0  0  0
 20 12  1  1  0  0  0
 12 26  1  0  0  0  0
 12 50  1  0  0  0  0
 13 14  1  0  0  0  0
 13 16  1  0  0  0  0
 13 19  1  0  0  0  0
 13 34  1  0  0  0  0
 14 15  1  0  0  0  0
 14 35  1  0  0  0  0
 14 36  1  0  0  0  0
 15 18  1  0  0  0  0
 15 37  1  0  0  0  0
 16 17  1  0  0  0  0
 16 38  1  0  0  0  0
 16 39  1  0  0  0  0
 17 40  1  0  0  0  0
 17 41  1  0  0  0  0
 18 42  1  0  0  0  0
 20 21  1  0  0  0  0
 20 22  1  0  0  0  0
 20 45  1  0  0  0  0
 22 23  1  0  0  0  0
 22 46  1  0  0  0  0
 22 47  1  0  0  0  0
 23 24  1  0  0  0  0
 23 25  1  0  0  0  0
 23 48  1  0  0  0  0
 24 51  1  0  0  0  0
 24 52  1  0  0  0  0
 24 53  1  0  0  0  0
 25 54  1  0  0  0  0
 25 55  1  0  0  0  0
 25 56  1  0  0  0  0
 27 28  1  0  0  0  0
 27 58  1  0  0  0  0
 27 59  1  0  0  0  0
 28 29  2  0  0  0  0
 28 30  1  0  0  0  0
 29 31  1  0  0  0  0
 29 60  1  0  0  0  0
 30 32  2  0  0  0  0
 30 61  1  0  0  0  0
 31 33  2  0  0  0  0
 31 62  1  0  0  0  0
 32 33  1  0  0  0  0
 32 63  1  0  0  0  0
 33 64  1  0  0  0  0
M  END
> <PUBCHEM_COMPOUND_CID>
71481120

> <PUBCHEM_COMPOUND_CANONICALIZED>
1

> <PUBCHEM_CACTVS_COMPLEXITY>
777

> <PUBCHEM_CACTVS_HBOND_ACCEPTOR>
8

> <PUBCHEM_CACTVS_HBOND_DONOR>
5

> <PUBCHEM_CACTVS_ROTATABLE_BOND>
12

> <PUBCHEM_CACTVS_SUBSKEYS>
AAADceB7PABAAAAAAAAAAAAAAAAAAWAAAAAwAAAAAAAAAAABAAAAHgQQCAAADSjl2AayCILABoKIAiFSGHBCAAAgAAAIiIGICIkKdjKAsTiccAAk1gGYqAec1CIOAAAAAAAAAAAAAAAAAAAAAAAAAAAAAA==

> <PUBCHEM_IUPAC_OPENEYE_NAME>
(2S)-2-[[(2S)-2-(benzyloxycarbonylamino)-4-methyl-pentanoyl]amino]-1-hydroxy-3-(2-oxopyrrolidin-3-yl)propane-1-sulfonic acid

> <PUBCHEM_IUPAC_CAS_NAME>
(2S)-1-hydroxy-2-[[(2S)-4-methyl-1-oxo-2-(phenylmethoxycarbonylamino)pentyl]amino]-3-(2-oxo-3-pyrrolidinyl)-1-propanesulfonic acid

> <PUBCHEM_IUPAC_NAME_MARKUP>
(2<I>S</I>)-1-hydroxy-2-[[(2<I>S</I>)-4-methyl-2-(phenylmethoxycarbonylamino)pentanoyl]amino]-3-(2-oxopyrrolidin-3-yl)propane-1-sulfonic acid

> <PUBCHEM_IUPAC_NAME>
(2S)-1-hydroxy-2-[[(2S)-4-methyl-2-(phenylmethoxycarbonylamino)pentanoyl]amino]-3-(2-oxopyrrolidin-3-yl)propane-1-sulfonic acid

> <PUBCHEM_IUPAC_SYSTEMATIC_NAME>
(2S)-2-[[(2S)-4-methyl-2-(phenylmethoxycarbonylamino)pentanoyl]amino]-1-oxidanyl-3-(2-oxidanylidenepyrrolidin-3-yl)propane-1-sulfonic acid

> <PUBCHEM_IUPAC_TRADITIONAL_NAME>
(2S)-2-[[(2S)-2-(benzyloxycarbonylamino)-4-methyl-pentanoyl]amino]-1-hydroxy-3-(2-ketopyrrolidin-3-yl)propane-1-sulfonic acid

> <PUBCHEM_IUPAC_INCHI>
InChI=1S/C21H31N3O8S/c1-13(2)10-16(24-21(28)32-12-14-6-4-3-5-7-14)19(26)23-17(20(27)33(29,30)31)11-15-8-9-22-18(15)25/h3-7,13,15-17,20,27H,8-12H2,1-2H3,(H,22,25)(H,23,26)(H,24,28)(H,29,30,31)/t15?,16-,17-,20?/m0/s1

> <PUBCHEM_IUPAC_INCHIKEY>
BSPZFJDYQHDZNR-ASPXRTSYSA-N

> <PUBCHEM_XLOGP3_AA>
0.7

> <PUBCHEM_EXACT_MASS>
485.18318613

> <PUBCHEM_MOLECULAR_FORMULA>
C21H31N3O8S

> <PUBCHEM_MOLECULAR_WEIGHT>
485.6

> <PUBCHEM_OPENEYE_CAN_SMILES>
CC(C)CC(C(=O)NC(CC1CCNC1=O)C(O)S(=O)(=O)O)NC(=O)OCC2=CC=CC=C2

> <PUBCHEM_OPENEYE_ISO_SMILES>
CC(C)C[C@@H](C(=O)N[C@@H](CC1CCNC1=O)C(O)S(=O)(=O)O)NC(=O)OCC2=CC=CC=C2

> <PUBCHEM_CACTVS_TPSA>
180

> <PUBCHEM_MONOISOTOPIC_WEIGHT>
485.18318613

> <PUBCHEM_TOTAL_CHARGE>
0

> <PUBCHEM_HEAVY_ATOM_COUNT>
33

> <PUBCHEM_ATOM_DEF_STEREO_COUNT>
2

> <PUBCHEM_ATOM_UDEF_STEREO_COUNT>
2

> <PUBCHEM_BOND_DEF_STEREO_COUNT>
0

> <PUBCHEM_BOND_UDEF_STEREO_COUNT>
0

> <PUBCHEM_ISOTOPIC_ATOM_COUNT>
0

> <PUBCHEM_COMPONENT_COUNT>
1

> <PUBCHEM_CACTVS_TAUTO_COUNT>
12

> <PUBCHEM_COORDINATE_TYPE>
1
5
255

> <PUBCHEM_BONDANNOTATIONS>
15  10  5
20  12  5
13  14  3
18  2  3
28  29  8
28  30  8
29  31  8
30  32  8
31  33  8
32  33  8

$$$$
9820008
  -OEChem-03012215082D

 44 46  0     0  0  0  0  0  0999 V2000
    2.0000    0.9806    0.0000 F   0  0  0  0  0  0  0  0  0  0  0  0
    5.4641    1.9806    0.0000 O   0  0  0  0  0  0  0  0  0  0  0  0
    7.1013    4.4285    0.0000 O   0  0  0  0  0  0  0  0  0  0  0  0
    6.5661    2.7812    0.0000 O   0  0  0  0  0  0  0  0  0  0  0  0
    2.0000   -4.0194    0.0000 O   0  0  0  0  0  0  0  0  0  0  0  0
    3.7320    1.9806    0.0000 N   0  0  0  0  0  0  0  0  0  0  0  0
    4.0981    5.0194    0.0000 C   0  0  0  0  0  0  0  0  0  0  0  0
    3.7891    4.0684    0.0000 C   0  0  0  0  0  0  0  0  0  0  0  0
    5.0981    5.0194    0.0000 C   0  0  0  0  0  0  0  0  0  0  0  0
    4.5981    3.4806    0.0000 C   0  0  0  0  0  0  0  0  0  0  0  0
    5.4071    4.0684    0.0000 C   0  0  0  0  0  0  0  0  0  0  0  0
    4.5981    2.4806    0.0000 C   0  0  0  0  0  0  0  0  0  0  0  0
    6.3582    3.7594    0.0000 C   0  0  0  0  0  0  0  0  0  0  0  0
    3.7320    0.9806    0.0000 C   0  0  0  0  0  0  0  0  0  0  0  0
    3.7320   -1.0194    0.0000 C   0  0  0  0  0  0  0  0  0  0  0  0
    2.8660    0.4806    0.0000 C   0  0  0  0  0  0  0  0  0  0  0  0
    4.5981    0.4806    0.0000 C   0  0  0  0  0  0  0  0  0  0  0  0
    2.8660   -0.5194    0.0000 C   0  0  0  0  0  0  0  0  0  0  0  0
    4.5981   -0.5194    0.0000 C   0  0  0  0  0  0  0  0  0  0  0  0
    3.7320   -2.0194    0.0000 C   0  0  0  0  0  0  0  0  0  0  0  0
    2.8660   -2.5194    0.0000 C   0  0  0  0  0  0  0  0  0  0  0  0
    4.5981   -2.5194    0.0000 C   0  0  0  0  0  0  0  0  0  0  0  0
    2.8660   -3.5194    0.0000 C   0  0  0  0  0  0  0  0  0  0  0  0
    4.5981   -3.5194    0.0000 C   0  0  0  0  0  0  0  0  0  0  0  0
    3.7320   -4.0194    0.0000 C   0  0  0  0  0  0  0  0  0  0  0  0
    2.0000   -5.0194    0.0000 C   0  0  0  0  0  0  0  0  0  0  0  0
    4.1629    5.6360    0.0000 H   0  0  0  0  0  0  0  0  0  0  0  0
    3.4916    5.1483    0.0000 H   0  0  0  0  0  0  0  0  0  0  0  0
    3.2227    4.3205    0.0000 H   0  0  0  0  0  0  0  0  0  0  0  0
    3.4791    3.5314    0.0000 H   0  0  0  0  0  0  0  0  0  0  0  0
    5.7045    5.1483    0.0000 H   0  0  0  0  0  0  0  0  0  0  0  0
    5.0333    5.6360    0.0000 H   0  0  0  0  0  0  0  0  0  0  0  0
    3.1951    2.2906    0.0000 H   0  0  0  0  0  0  0  0  0  0  0  0
    5.1350    0.7906    0.0000 H   0  0  0  0  0  0  0  0  0  0  0  0
    2.3291   -0.8294    0.0000 H   0  0  0  0  0  0  0  0  0  0  0  0
    5.1350   -0.8294    0.0000 H   0  0  0  0  0  0  0  0  0  0  0  0
    7.6910    4.2369    0.0000 H   0  0  0  0  0  0  0  0  0  0  0  0
    2.3291   -2.2094    0.0000 H   0  0  0  0  0  0  0  0  0  0  0  0
    5.1350   -2.2094    0.0000 H   0  0  0  0  0  0  0  0  0  0  0  0
    5.1350   -3.8294    0.0000 H   0  0  0  0  0  0  0  0  0  0  0  0
    3.7320   -4.6394    0.0000 H   0  0  0  0  0  0  0  0  0  0  0  0
    1.3800   -5.0194    0.0000 H   0  0  0  0  0  0  0  0  0  0  0  0
    2.0000   -5.6394    0.0000 H   0  0  0  0  0  0  0  0  0  0  0  0
    2.6200   -5.0194    0.0000 H   0  0  0  0  0  0  0  0  0  0  0  0
  1 16  1  0  0  0  0
  2 12  2  0  0  0  0
  3 13  1  0  0  0  0
  3 37  1  0  0  0  0
  4 13  2  0  0  0  0
  5 23  1  0  0  0  0
  5 26  1  0  0  0  0
  6 12  1  0  0  0  0
  6 14  1  0  0  0  0
  6 33  1  0  0  0  0
  7  8  1  0  0  0  0
  7  9  1  0  0  0  0
  7 27  1  0  0  0  0
  7 28  1  0  0  0  0
  8 10  1  0  0  0  0
  8 29  1  0  0  0  0
  8 30  1  0  0  0  0
  9 11  1  0  0  0  0
  9 31  1  0  0  0  0
  9 32  1  0  0  0  0
 10 11  2  0  0  0  0
 10 12  1  0  0  0  0
 11 13  1  0  0  0  0
 14 16  2  0  0  0  0
 14 17  1  0  0  0  0
 15 18  2  0  0  0  0
 15 19  1  0  0  0  0
 15 20  1  0  0  0  0
 16 18  1  0  0  0  0
 17 19  2  0  0  0  0
 17 34  1  0  0  0  0
 18 35  1  0  0  0  0
 19 36  1  0  0  0  0
 20 21  2  0  0  0  0
 20 22  1  0  0  0  0
 21 23  1  0  0  0  0
 21 38  1  0  0  0  0
 22 24  2  0  0  0  0
 22 39  1  0  0  0  0
 23 25  2  0  0  0  0
 24 25  1  0  0  0  0
 24 40  1  0  0  0  0
 25 41  1  0  0  0  0
 26 42  1  0  0  0  0
 26 43  1  0  0  0  0
 26 44  1  0  0  0  0
M  END
> <PUBCHEM_COMPOUND_CID>
9820008

> <PUBCHEM_COMPOUND_CANONICALIZED>
1

> <PUBCHEM_CACTVS_COMPLEXITY>
576

> <PUBCHEM_CACTVS_HBOND_ACCEPTOR>
5

> <PUBCHEM_CACTVS_HBOND_DONOR>
2

> <PUBCHEM_CACTVS_ROTATABLE_BOND>
5

> <PUBCHEM_CACTVS_SUBSKEYS>
AAADceB6OQAAAAAAAAAAAAAAAAAAAQAAAAAwYAAAAAAAAAABQAAAHwAQCAAADAyBmAoyzoLABgCIAiXSWACCCAAhIgAIiAEGbMgMJjLEsZuEcChk1BHI+QeYyPCOiAABAAAAAAAQAAIAAAAAAAAAAAAAAA==

> <PUBCHEM_IUPAC_OPENEYE_NAME>
2-[[2-fluoro-4-(3-methoxyphenyl)phenyl]carbamoyl]cyclopentene-1-carboxylic acid

> <PUBCHEM_IUPAC_CAS_NAME>
2-[[2-fluoro-4-(3-methoxyphenyl)anilino]-oxomethyl]-1-cyclopentenecarboxylic acid

> <PUBCHEM_IUPAC_NAME_MARKUP>
2-[[2-fluoro-4-(3-methoxyphenyl)phenyl]carbamoyl]cyclopentene-1-carboxylic acid

> <PUBCHEM_IUPAC_NAME>
2-[[2-fluoro-4-(3-methoxyphenyl)phenyl]carbamoyl]cyclopentene-1-carboxylic acid

> <PUBCHEM_IUPAC_SYSTEMATIC_NAME>
2-[[2-fluoranyl-4-(3-methoxyphenyl)phenyl]carbamoyl]cyclopentene-1-carboxylic acid

> <PUBCHEM_IUPAC_TRADITIONAL_NAME>
2-[[2-fluoro-4-(3-methoxyphenyl)phenyl]carbamoyl]cyclopentene-1-carboxylic acid

> <PUBCHEM_IUPAC_INCHI>
InChI=1S/C20H18FNO4/c1-26-14-5-2-4-12(10-14)13-8-9-18(17(21)11-13)22-19(23)15-6-3-7-16(15)20(24)25/h2,4-5,8-11H,3,6-7H2,1H3,(H,22,23)(H,24,25)

> <PUBCHEM_IUPAC_INCHIKEY>
XPRDUGXOWVXZLL-UHFFFAOYSA-N

> <PUBCHEM_XLOGP3_AA>
3.4

> <PUBCHEM_EXACT_MASS>
355.12198622

> <PUBCHEM_MOLECULAR_FORMULA>
C20H18FNO4

> <PUBCHEM_MOLECULAR_WEIGHT>
355.4

> <PUBCHEM_OPENEYE_CAN_SMILES>
COC1=CC=CC(=C1)C2=CC(=C(C=C2)NC(=O)C3=C(CCC3)C(=O)O)F

> <PUBCHEM_OPENEYE_ISO_SMILES>
COC1=CC=CC(=C1)C2=CC(=C(C=C2)NC(=O)C3=C(CCC3)C(=O)O)F

> <PUBCHEM_CACTVS_TPSA>
75.6

> <PUBCHEM_MONOISOTOPIC_WEIGHT>
355.12198622

> <PUBCHEM_TOTAL_CHARGE>
0

> <PUBCHEM_HEAVY_ATOM_COUNT>
26

> <PUBCHEM_ATOM_DEF_STEREO_COUNT>
0

> <PUBCHEM_ATOM_UDEF_STEREO_COUNT>
0

> <PUBCHEM_BOND_DEF_STEREO_COUNT>
0

> <PUBCHEM_BOND_UDEF_STEREO_COUNT>
0

> <PUBCHEM_ISOTOPIC_ATOM_COUNT>
0

> <PUBCHEM_COMPONENT_COUNT>
1

> <PUBCHEM_CACTVS_TAUTO_COUNT>
2

> <PUBCHEM_COORDINATE_TYPE>
1
5
255

> <PUBCHEM_BONDANNOTATIONS>
14  16  8
14  17  8
15  18  8
15  19  8
16  18  8
17  19  8
20  21  8
20  22  8
21  23  8
22  24  8
23  25  8
24  25  8

$$$$
11285792
  -OEChem-03012215082D

102106  0     1  0  0  0  0  0999 V2000
   12.6131    5.7762    0.0000 S   0  0  2  0  0  0  0  0  0  0  0  0
    8.6131    4.0441    0.0000 O   0  0  0  0  0  0  0  0  0  0  0  0
    5.6743   -2.0311    0.0000 O   0  0  0  0  0  0  0  0  0  0  0  0
   13.1131    4.9101    0.0000 O   0  0  0  0  0  0  0  0  0  0  0  0
    4.2267   -4.2457    0.0000 O   0  0  0  0  0  0  0  0  0  0  0  0
    4.5000    4.9101    0.0000 N   0  0  3  0  0  0  0  0  0  0  0  0
    8.6131    5.7762    0.0000 N   0  0  0  0  0  0  0  0  0  0  0  0
   14.7009    5.8332    0.0000 N   0  0  0  0  0  0  0  0  0  0  0  0
   15.6520    7.1422    0.0000 N   0  0  0  0  0  0  0  0  0  0  0  0
    3.5000    4.9101    0.0000 C   0  0  0  0  0  0  0  0  0  0  0  0
    4.8827    5.8340    0.0000 C   0  0  0  0  0  0  0  0  0  0  0  0
    3.0000    5.7762    0.0000 C   0  0  0  0  0  0  0  0  0  0  0  0
    5.8066    6.2167    0.0000 C   0  0  0  0  0  0  0  0  0  0  0  0
    4.8827    3.9862    0.0000 C   0  0  0  0  0  0  0  0  0  0  0  0
    6.7304    5.8340    0.0000 C   0  0  0  0  0  0  0  0  0  0  0  0
    5.8066    3.6036    0.0000 C   0  0  0  0  0  0  0  0  0  0  0  0
    7.1131    4.9101    0.0000 C   0  0  0  0  0  0  0  0  0  0  0  0
    6.7304    3.9862    0.0000 C   0  0  0  0  0  0  0  0  0  0  0  0
    2.0000    5.7762    0.0000 C   0  0  0  0  0  0  0  0  0  0  0  0
    3.5000    6.6422    0.0000 C   0  0  0  0  0  0  0  0  0  0  0  0
    4.0466    3.3650    0.0000 C   0  0  0  0  0  0  0  0  0  0  0  0
    5.9584    2.5731    0.0000 C   0  0  0  0  0  0  0  0  0  0  0  0
    5.1370    1.9326    0.0000 C   0  0  0  0  0  0  0  0  0  0  0  0
    4.1746    2.3312    0.0000 C   0  0  0  0  0  0  0  0  0  0  0  0
    8.1131    4.9101    0.0000 C   0  0  0  0  0  0  0  0  0  0  0  0
    5.2713    0.9417    0.0000 C   0  0  0  0  0  0  0  0  0  0  0  0
    6.1966    0.5626    0.0000 C   0  0  0  0  0  0  0  0  0  0  0  0
    4.4803    0.3299    0.0000 C   0  0  0  0  0  0  0  0  0  0  0  0
    9.6131    5.7762    0.0000 C   0  0  0  0  0  0  0  0  0  0  0  0
    6.3310   -0.4284    0.0000 C   0  0  0  0  0  0  0  0  0  0  0  0
    4.6146   -0.6611    0.0000 C   0  0  0  0  0  0  0  0  0  0  0  0
    5.5400   -1.0402    0.0000 C   0  0  0  0  0  0  0  0  0  0  0  0
   10.1131    6.6422    0.0000 C   0  0  0  0  0  0  0  0  0  0  0  0
   10.1131    4.9101    0.0000 C   0  0  0  0  0  0  0  0  0  0  0  0
   11.6131    5.7762    0.0000 C   0  0  0  0  0  0  0  0  0  0  0  0
   14.1131    6.6422    0.0000 C   0  0  0  0  0  0  0  0  0  0  0  0
   13.1131    6.6422    0.0000 C   0  0  0  0  0  0  0  0  0  0  0  0
   11.1131    6.6422    0.0000 C   0  0  0  0  0  0  0  0  0  0  0  0
   11.1131    4.9101    0.0000 C   0  0  0  0  0  0  0  0  0  0  0  0
   14.3919    4.8821    0.0000 C   0  0  0  0  0  0  0  0  0  0  0  0
   15.0610    4.1390    0.0000 C   0  0  0  0  0  0  0  0  0  0  0  0
   14.7009    7.4512    0.0000 C   0  0  0  0  0  0  0  0  0  0  0  0
   15.6520    6.1422    0.0000 C   0  0  0  0  0  0  0  0  0  0  0  0
    4.8834   -2.6430    0.0000 C   0  0  0  0  0  0  0  0  0  0  0  0
   14.7520    3.1879    0.0000 C   0  0  0  0  0  0  0  0  0  0  0  0
    5.0177   -3.6339    0.0000 C   0  0  0  0  0  0  0  0  0  0  0  0
    4.3610   -5.2366    0.0000 C   0  0  0  0  0  0  0  0  0  0  0  0
    3.5700   -5.8484    0.0000 C   0  0  0  0  0  0  0  0  0  0  0  0
    3.7044   -6.8394    0.0000 C   0  0  0  0  0  0  0  0  0  0  0  0
    2.9134   -7.4512    0.0000 C   0  0  0  0  0  0  0  0  0  0  0  0
    2.9174    4.6981    0.0000 H   0  0  0  0  0  0  0  0  0  0  0  0
    3.6077    4.2996    0.0000 H   0  0  0  0  0  0  0  0  0  0  0  0
    4.8018    6.4487    0.0000 H   0  0  0  0  0  0  0  0  0  0  0  0
    4.2680    5.9149    0.0000 H   0  0  0  0  0  0  0  0  0  0  0  0
    3.6200    5.7762    0.0000 H   0  0  0  0  0  0  0  0  0  0  0  0
    6.1840    6.7086    0.0000 H   0  0  0  0  0  0  0  0  0  0  0  0
    5.4291    6.7086    0.0000 H   0  0  0  0  0  0  0  0  0  0  0  0
    7.3451    5.9149    0.0000 H   0  0  0  0  0  0  0  0  0  0  0  0
    6.8114    6.4487    0.0000 H   0  0  0  0  0  0  0  0  0  0  0  0
    7.1688    3.5478    0.0000 H   0  0  0  0  0  0  0  0  0  0  0  0
    2.0000    6.3961    0.0000 H   0  0  0  0  0  0  0  0  0  0  0  0
    1.3800    5.7762    0.0000 H   0  0  0  0  0  0  0  0  0  0  0  0
    2.0000    5.1562    0.0000 H   0  0  0  0  0  0  0  0  0  0  0  0
    4.0369    6.3322    0.0000 H   0  0  0  0  0  0  0  0  0  0  0  0
    3.8100    7.1791    0.0000 H   0  0  0  0  0  0  0  0  0  0  0  0
    2.9631    6.9522    0.0000 H   0  0  0  0  0  0  0  0  0  0  0  0
    3.4766    3.6088    0.0000 H   0  0  0  0  0  0  0  0  0  0  0  0
    6.5339    2.3424    0.0000 H   0  0  0  0  0  0  0  0  0  0  0  0
    3.6813    1.9557    0.0000 H   0  0  0  0  0  0  0  0  0  0  0  0
    8.3031    6.3131    0.0000 H   0  0  0  0  0  0  0  0  0  0  0  0
    6.6871    0.9419    0.0000 H   0  0  0  0  0  0  0  0  0  0  0  0
    3.9066    0.5649    0.0000 H   0  0  0  0  0  0  0  0  0  0  0  0
    6.9047   -0.6634    0.0000 H   0  0  0  0  0  0  0  0  0  0  0  0
    4.1242   -1.0404    0.0000 H   0  0  0  0  0  0  0  0  0  0  0  0
    9.8031    7.1791    0.0000 H   0  0  0  0  0  0  0  0  0  0  0  0
    9.8031    4.3732    0.0000 H   0  0  0  0  0  0  0  0  0  0  0  0
   13.2208    7.2528    0.0000 H   0  0  0  0  0  0  0  0  0  0  0  0
   12.5305    6.8542    0.0000 H   0  0  0  0  0  0  0  0  0  0  0  0
   13.8445    5.1732    0.0000 H   0  0  0  0  0  0  0  0  0  0  0  0
   14.0102    4.3935    0.0000 H   0  0  0  0  0  0  0  0  0  0  0  0
   11.4231    7.1791    0.0000 H   0  0  0  0  0  0  0  0  0  0  0  0
   11.4231    4.3732    0.0000 H   0  0  0  0  0  0  0  0  0  0  0  0
   15.6085    3.8479    0.0000 H   0  0  0  0  0  0  0  0  0  0  0  0
   15.4427    4.6275    0.0000 H   0  0  0  0  0  0  0  0  0  0  0  0
   14.5093    8.0408    0.0000 H   0  0  0  0  0  0  0  0  0  0  0  0
   16.1536    5.7778    0.0000 H   0  0  0  0  0  0  0  0  0  0  0  0
    4.5949   -2.0941    0.0000 H   0  0  0  0  0  0  0  0  0  0  0  0
    4.2928   -2.8317    0.0000 H   0  0  0  0  0  0  0  0  0  0  0  0
   14.1624    3.3795    0.0000 H   0  0  0  0  0  0  0  0  0  0  0  0
   14.5604    2.5982    0.0000 H   0  0  0  0  0  0  0  0  0  0  0  0
   15.3417    2.9963    0.0000 H   0  0  0  0  0  0  0  0  0  0  0  0
    5.3061   -4.1827    0.0000 H   0  0  0  0  0  0  0  0  0  0  0  0
    5.6083   -3.4452    0.0000 H   0  0  0  0  0  0  0  0  0  0  0  0
    3.2816   -5.2996    0.0000 H   0  0  0  0  0  0  0  0  0  0  0  0
    2.9795   -6.0372    0.0000 H   0  0  0  0  0  0  0  0  0  0  0  0
    4.6494   -5.7855    0.0000 H   0  0  0  0  0  0  0  0  0  0  0  0
    4.9516   -5.0479    0.0000 H   0  0  0  0  0  0  0  0  0  0  0  0
    3.9928   -7.3882    0.0000 H   0  0  0  0  0  0  0  0  0  0  0  0
    4.2950   -6.6507    0.0000 H   0  0  0  0  0  0  0  0  0  0  0  0
    2.5341   -6.9608    0.0000 H   0  0  0  0  0  0  0  0  0  0  0  0
    2.4230   -7.8305    0.0000 H   0  0  0  0  0  0  0  0  0  0  0  0
    3.2927   -7.9416    0.0000 H   0  0  0  0  0  0  0  0  0  0  0  0
  1  4  2  0  0  0  0
  1 35  1  0  0  0  0
  1 37  1  6  0  0  0
  2 25  2  0  0  0  0
  3 32  1  0  0  0  0
  3 44  1  0  0  0  0
  5 46  1  0  0  0  0
  5 47  1  0  0  0  0
  6 10  1  0  0  0  0
  6 11  1  0  0  0  0
  6 14  1  0  0  0  0
  7 25  1  0  0  0  0
  7 29  1  0  0  0  0
  7 70  1  0  0  0  0
  8 36  1  0  0  0  0
  8 40  1  0  0  0  0
  8 43  1  0  0  0  0
  9 42  1  0  0  0  0
  9 43  2  0  0  0  0
 10 12  1  0  0  0  0
 10 51  1  0  0  0  0
 10 52  1  0  0  0  0
 11 13  1  0  0  0  0
 11 53  1  0  0  0  0
 11 54  1  0  0  0  0
 12 19  1  0  0  0  0
 12 20  1  0  0  0  0
 12 55  1  0  0  0  0
 13 15  1  0  0  0  0
 13 56  1  0  0  0  0
 13 57  1  0  0  0  0
 14 16  2  0  0  0  0
 14 21  1  0  0  0  0
 15 17  1  0  0  0  0
 15 58  1  0  0  0  0
 15 59  1  0  0  0  0
 16 18  1  0  0  0  0
 16 22  1  0  0  0  0
 17 18  2  0  0  0  0
 17 25  1  0  0  0  0
 18 60  1  0  0  0  0
 19 61  1  0  0  0  0
 19 62  1  0  0  0  0
 19 63  1  0  0  0  0
 20 64  1  0  0  0  0
 20 65  1  0  0  0  0
 20 66  1  0  0  0  0
 21 24  2  0  0  0  0
 21 67  1  0  0  0  0
 22 23  2  0  0  0  0
 22 68  1  0  0  0  0
 23 24  1  0  0  0  0
 23 26  1  0  0  0  0
 24 69  1  0  0  0  0
 26 27  2  0  0  0  0
 26 28  1  0  0  0  0
 27 30  1  0  0  0  0
 27 71  1  0  0  0  0
 28 31  2  0  0  0  0
 28 72  1  0  0  0  0
 29 33  2  0  0  0  0
 29 34  1  0  0  0  0
 30 32  2  0  0  0  0
 30 73  1  0  0  0  0
 31 32  1  0  0  0  0
 31 74  1  0  0  0  0
 33 38  1  0  0  0  0
 33 75  1  0  0  0  0
 34 39  2  0  0  0  0
 34 76  1  0  0  0  0
 35 38  2  0  0  0  0
 35 39  1  0  0  0  0
 36 37  1  0  0  0  0
 36 42  2  0  0  0  0
 37 77  1  0  0  0  0
 37 78  1  0  0  0  0
 38 81  1  0  0  0  0
 39 82  1  0  0  0  0
 40 41  1  0  0  0  0
 40 79  1  0  0  0  0
 40 80  1  0  0  0  0
 41 45  1  0  0  0  0
 41 83  1  0  0  0  0
 41 84  1  0  0  0  0
 42 85  1  0  0  0  0
 43 86  1  0  0  0  0
 44 46  1  0  0  0  0
 44 87  1  0  0  0  0
 44 88  1  0  0  0  0
 45 89  1  0  0  0  0
 45 90  1  0  0  0  0
 45 91  1  0  0  0  0
 46 92  1  0  0  0  0
 46 93  1  0  0  0  0
 47 48  1  0  0  0  0
 47 96  1  0  0  0  0
 47 97  1  0  0  0  0
 48 49  1  0  0  0  0
 48 94  1  0  0  0  0
 48 95  1  0  0  0  0
 49 50  1  0  0  0  0
 49 98  1  0  0  0  0
 49 99  1  0  0  0  0
 50100  1  0  0  0  0
 50101  1  0  0  0  0
 50102  1  0  0  0  0
M  END
> <PUBCHEM_COMPOUND_CID>
11285792

> <PUBCHEM_COMPOUND_CANONICALIZED>
1

> <PUBCHEM_CACTVS_COMPLEXITY>
1060

> <PUBCHEM_CACTVS_HBOND_ACCEPTOR>
7

> <PUBCHEM_CACTVS_HBOND_DONOR>
1

> <PUBCHEM_CACTVS_ROTATABLE_BOND>
17

> <PUBCHEM_CACTVS_SUBSKEYS>
AAADcfB/uABAAAAAAAAAAAAAAAAAAWAAAAAwYMAAAAAQAAAB1AAAHgQQAAAADQzl3ga/15fMFAqoAzV3dEDCiC0xOrAJ2Bk+fMiNbjLkuZuWOCjs1BPq6aeYwfAOqAQCAAACAABQCAQAAAQAAAAAAAAAAA==

> <PUBCHEM_IUPAC_OPENEYE_NAME>
(5E)-8-[4-(2-butoxyethoxy)phenyl]-1-isobutyl-N-[4-[(S)-(3-propylimidazol-4-yl)methylsulfinyl]phenyl]-3,4-dihydro-2H-1-benzazocine-5-carboxamide

> <PUBCHEM_IUPAC_CAS_NAME>
(5E)-8-[4-(2-butoxyethoxy)phenyl]-1-(2-methylpropyl)-N-[4-[(S)-(3-propyl-4-imidazolyl)methylsulfinyl]phenyl]-3,4-dihydro-2H-1-benzazocine-5-carboxamide

> <PUBCHEM_IUPAC_NAME_MARKUP>
(5<I>E</I>)-8-[4-(2-butoxyethoxy)phenyl]-1-(2-methylpropyl)-<I>N</I>-[4-[(<I>S</I>)-(3-propylimidazol-4-yl)methylsulfinyl]phenyl]-3,4-dihydro-2<I>H</I>-1-benzazocine-5-carboxamide

> <PUBCHEM_IUPAC_NAME>
(5E)-8-[4-(2-butoxyethoxy)phenyl]-1-(2-methylpropyl)-N-[4-[(S)-(3-propylimidazol-4-yl)methylsulfinyl]phenyl]-3,4-dihydro-2H-1-benzazocine-5-carboxamide

> <PUBCHEM_IUPAC_SYSTEMATIC_NAME>
(5E)-8-[4-(2-butoxyethoxy)phenyl]-1-(2-methylpropyl)-N-[4-[(S)-(3-propylimidazol-4-yl)methylsulfinyl]phenyl]-3,4-dihydro-2H-1-benzazocine-5-carboxamide

> <PUBCHEM_IUPAC_TRADITIONAL_NAME>
(5E)-8-[4-(2-butoxyethoxy)phenyl]-1-isobutyl-N-[4-[(S)-(3-propylimidazol-4-yl)methylsulfinyl]phenyl]-3,4-dihydro-2H-1-benzazocine-5-carboxamide

> <PUBCHEM_IUPAC_INCHI>
InChI=1S/C41H52N4O4S/c1-5-7-22-48-23-24-49-38-15-10-32(11-16-38)33-12-19-40-35(25-33)26-34(9-8-21-44(40)28-31(3)4)41(46)43-36-13-17-39(18-14-36)50(47)29-37-27-42-30-45(37)20-6-2/h10-19,25-27,30-31H,5-9,20-24,28-29H2,1-4H3,(H,43,46)/b34-26+/t50-/m0/s1

> <PUBCHEM_IUPAC_INCHIKEY>
PNDKCRDVVKJPKG-WHERJAGFSA-N

> <PUBCHEM_XLOGP3_AA>
7.5

> <PUBCHEM_EXACT_MASS>
696.37092733

> <PUBCHEM_MOLECULAR_FORMULA>
C41H52N4O4S

> <PUBCHEM_MOLECULAR_WEIGHT>
696.9

> <PUBCHEM_OPENEYE_CAN_SMILES>
CCCCOCCOC1=CC=C(C=C1)C2=CC3=C(C=C2)N(CCCC(=C3)C(=O)NC4=CC=C(C=C4)S(=O)CC5=CN=CN5CCC)CC(C)C

> <PUBCHEM_OPENEYE_ISO_SMILES>
CCCCOCCOC1=CC=C(C=C1)C2=CC/3=C(C=C2)N(CCC/C(=C3)/C(=O)NC4=CC=C(C=C4)[S@@](=O)CC5=CN=CN5CCC)CC(C)C

> <PUBCHEM_CACTVS_TPSA>
105

> <PUBCHEM_MONOISOTOPIC_WEIGHT>
696.37092733

> <PUBCHEM_TOTAL_CHARGE>
0

> <PUBCHEM_HEAVY_ATOM_COUNT>
50

> <PUBCHEM_ATOM_DEF_STEREO_COUNT>
1

> <PUBCHEM_ATOM_UDEF_STEREO_COUNT>
0

> <PUBCHEM_BOND_DEF_STEREO_COUNT>
1

> <PUBCHEM_BOND_UDEF_STEREO_COUNT>
0

> <PUBCHEM_ISOTOPIC_ATOM_COUNT>
0

> <PUBCHEM_COMPONENT_COUNT>
1

> <PUBCHEM_CACTVS_TAUTO_COUNT>
2

> <PUBCHEM_COORDINATE_TYPE>
1
5
255

> <PUBCHEM_BONDANNOTATIONS>
1  37  6
14  16  8
14  21  8
16  22  8
21  24  8
22  23  8
23  24  8
26  27  8
26  28  8
27  30  8
28  31  8
29  33  8
29  34  8
30  32  8
31  32  8
33  38  8
34  39  8
35  38  8
35  39  8
36  42  8
8  36  8
8  43  8
9  42  8
9  43  8

$$$$
11561674
  -OEChem-03012215082D

 56 58  0     1  0  0  0  0  0999 V2000
    8.6279    1.7141    0.0000 S   0  0  0  0  0  0  0  0  0  0  0  0
    8.6279    2.7141    0.0000 O   0  0  0  0  0  0  0  0  0  0  0  0
    8.6279    0.7141    0.0000 O   0  0  0  0  0  0  0  0  0  0  0  0
    5.8550    2.6033    0.0000 O   0  0  0  0  0  0  0  0  0  0  0  0
    5.8550   -0.9072    0.0000 O   0  0  0  0  0  0  0  0  0  0  0  0
    7.1279   -2.6160    0.0000 O   0  0  0  0  0  0  0  0  0  0  0  0
    9.1279   -2.6160    0.0000 O   0  0  0  0  0  0  0  0  0  0  0  0
    2.0000    2.8481    0.0000 O   0  0  0  0  0  0  0  0  0  0  0  0
    6.1279    0.8481    0.0000 N   0  0  0  0  0  0  0  0  0  0  0  0
    3.7320    2.8481    0.0000 N   0  0  0  0  0  0  0  0  0  0  0  0
    7.1279    0.8481    0.0000 C   0  0  2  0  0  0  0  0  0  0  0  0
    7.6279    1.7141    0.0000 C   0  0  0  0  0  0  0  0  0  0  0  0
    7.6279   -0.0179    0.0000 C   0  0  0  0  0  0  0  0  0  0  0  0
    5.5443    1.6528    0.0000 C   0  0  0  0  0  0  0  0  0  0  0  0
    5.5443    0.0433    0.0000 C   0  0  0  0  0  0  0  0  0  0  0  0
    4.5981    1.3481    0.0000 C   0  0  0  0  0  0  0  0  0  0  0  0
    4.5981    0.3481    0.0000 C   0  0  0  0  0  0  0  0  0  0  0  0
    7.1279   -0.8840    0.0000 C   0  0  0  0  0  0  0  0  0  0  0  0
    8.6279   -0.0179    0.0000 C   0  0  0  0  0  0  0  0  0  0  0  0
    3.7320    1.8481    0.0000 C   0  0  0  0  0  0  0  0  0  0  0  0
    9.6279    1.7141    0.0000 C   0  0  0  0  0  0  0  0  0  0  0  0
    3.7320   -0.1519    0.0000 C   0  0  0  0  0  0  0  0  0  0  0  0
    7.6279   -1.7500    0.0000 C   0  0  0  0  0  0  0  0  0  0  0  0
    9.1279   -0.8840    0.0000 C   0  0  0  0  0  0  0  0  0  0  0  0
    2.8660    1.3481    0.0000 C   0  0  0  0  0  0  0  0  0  0  0  0
    8.6279   -1.7500    0.0000 C   0  0  0  0  0  0  0  0  0  0  0  0
    2.8660    0.3481    0.0000 C   0  0  0  0  0  0  0  0  0  0  0  0
    2.8660    3.3481    0.0000 C   0  0  0  0  0  0  0  0  0  0  0  0
    7.6279   -3.4820    0.0000 C   0  0  0  0  0  0  0  0  0  0  0  0
   10.1279   -2.6160    0.0000 C   0  0  0  0  0  0  0  0  0  0  0  0
    2.8660    4.3481    0.0000 C   0  0  0  0  0  0  0  0  0  0  0  0
    7.1279   -4.3481    0.0000 C   0  0  0  0  0  0  0  0  0  0  0  0
    6.8179    1.3850    0.0000 H   0  0  0  0  0  0  0  0  0  0  0  0
    7.7356    2.3247    0.0000 H   0  0  0  0  0  0  0  0  0  0  0  0
    7.0453    1.9262    0.0000 H   0  0  0  0  0  0  0  0  0  0  0  0
    6.5079   -0.8840    0.0000 H   0  0  0  0  0  0  0  0  0  0  0  0
    8.9379    0.5190    0.0000 H   0  0  0  0  0  0  0  0  0  0  0  0
    9.6279    1.0941    0.0000 H   0  0  0  0  0  0  0  0  0  0  0  0
   10.2479    1.7141    0.0000 H   0  0  0  0  0  0  0  0  0  0  0  0
    9.6279    2.3341    0.0000 H   0  0  0  0  0  0  0  0  0  0  0  0
    3.7320   -0.7719    0.0000 H   0  0  0  0  0  0  0  0  0  0  0  0
    9.7479   -0.8840    0.0000 H   0  0  0  0  0  0  0  0  0  0  0  0
    2.3291    1.6581    0.0000 H   0  0  0  0  0  0  0  0  0  0  0  0
    2.3291    0.0381    0.0000 H   0  0  0  0  0  0  0  0  0  0  0  0
    4.2690    3.1581    0.0000 H   0  0  0  0  0  0  0  0  0  0  0  0
    8.1028   -3.8806    0.0000 H   0  0  0  0  0  0  0  0  0  0  0  0
    8.1028   -3.0835    0.0000 H   0  0  0  0  0  0  0  0  0  0  0  0
   10.1279   -3.2360    0.0000 H   0  0  0  0  0  0  0  0  0  0  0  0
   10.7479   -2.6160    0.0000 H   0  0  0  0  0  0  0  0  0  0  0  0
   10.1279   -1.9960    0.0000 H   0  0  0  0  0  0  0  0  0  0  0  0
    3.4860    4.3481    0.0000 H   0  0  0  0  0  0  0  0  0  0  0  0
    2.8660    4.9681    0.0000 H   0  0  0  0  0  0  0  0  0  0  0  0
    2.2460    4.3481    0.0000 H   0  0  0  0  0  0  0  0  0  0  0  0
    6.5910   -4.0381    0.0000 H   0  0  0  0  0  0  0  0  0  0  0  0
    6.8179   -4.8850    0.0000 H   0  0  0  0  0  0  0  0  0  0  0  0
    7.6648   -4.6581    0.0000 H   0  0  0  0  0  0  0  0  0  0  0  0
  1  2  2  0  0  0  0
  1  3  2  0  0  0  0
  1 12  1  0  0  0  0
  1 21  1  0  0  0  0
  4 14  2  0  0  0  0
  5 15  2  0  0  0  0
  6 23  1  0  0  0  0
  6 29  1  0  0  0  0
  7 26  1  0  0  0  0
  7 30  1  0  0  0  0
  8 28  2  0  0  0  0
  9 11  1  0  0  0  0
  9 14  1  0  0  0  0
  9 15  1  0  0  0  0
 10 20  1  0  0  0  0
 10 28  1  0  0  0  0
 10 45  1  0  0  0  0
 11 12  1  6  0  0  0
 11 13  1  0  0  0  0
 11 33  1  0  0  0  0
 12 34  1  0  0  0  0
 12 35  1  0  0  0  0
 13 18  2  0  0  0  0
 13 19  1  0  0  0  0
 14 16  1  0  0  0  0
 15 17  1  0  0  0  0
 16 17  2  0  0  0  0
 16 20  1  0  0  0  0
 17 22  1  0  0  0  0
 18 23  1  0  0  0  0
 18 36  1  0  0  0  0
 19 24  2  0  0  0  0
 19 37  1  0  0  0  0
 20 25  2  0  0  0  0
 21 38  1  0  0  0  0
 21 39  1  0  0  0  0
 21 40  1  0  0  0  0
 22 27  2  0  0  0  0
 22 41  1  0  0  0  0
 23 26  2  0  0  0  0
 24 26  1  0  0  0  0
 24 42  1  0  0  0  0
 25 27  1  0  0  0  0
 25 43  1  0  0  0  0
 27 44  1  0  0  0  0
 28 31  1  0  0  0  0
 29 32  1  0  0  0  0
 29 46  1  0  0  0  0
 29 47  1  0  0  0  0
 30 48  1  0  0  0  0
 30 49  1  0  0  0  0
 30 50  1  0  0  0  0
 31 51  1  0  0  0  0
 31 52  1  0  0  0  0
 31 53  1  0  0  0  0
 32 54  1  0  0  0  0
 32 55  1  0  0  0  0
 32 56  1  0  0  0  0
M  END
> <PUBCHEM_COMPOUND_CID>
11561674

> <PUBCHEM_COMPOUND_CANONICALIZED>
1

> <PUBCHEM_CACTVS_COMPLEXITY>
825

> <PUBCHEM_CACTVS_HBOND_ACCEPTOR>
7

> <PUBCHEM_CACTVS_HBOND_DONOR>
1

> <PUBCHEM_CACTVS_ROTATABLE_BOND>
8

> <PUBCHEM_CACTVS_SUBSKEYS>
AAADceB7OABAAAAAAAAAAAAAAAAAAWAAAAAwYAAAAAAAAFgBQAAAHgQQAAAADCzl2AayxoPABAqIAiVSUHDCCAAlIhAIiAEO7MgNJjrk9ZuGOark1jHK6ce92LOOoAABQAASQABAAAKAACSAAAAAAAAAAA==

> <PUBCHEM_IUPAC_OPENEYE_NAME>
N-[2-[(1S)-1-(3-ethoxy-4-methoxy-phenyl)-2-methylsulfonyl-ethyl]-1,3-dioxo-isoindolin-4-yl]acetamide

> <PUBCHEM_IUPAC_CAS_NAME>
N-[2-[(1S)-1-(3-ethoxy-4-methoxyphenyl)-2-methylsulfonylethyl]-1,3-dioxo-4-isoindolyl]acetamide

> <PUBCHEM_IUPAC_NAME_MARKUP>
<I>N</I>-[2-[(1<I>S</I>)-1-(3-ethoxy-4-methoxyphenyl)-2-methylsulfonylethyl]-1,3-dioxoisoindol-4-yl]acetamide

> <PUBCHEM_IUPAC_NAME>
N-[2-[(1S)-1-(3-ethoxy-4-methoxyphenyl)-2-methylsulfonylethyl]-1,3-dioxoisoindol-4-yl]acetamide

> <PUBCHEM_IUPAC_SYSTEMATIC_NAME>
N-[2-[(1S)-1-(3-ethoxy-4-methoxy-phenyl)-2-methylsulfonyl-ethyl]-1,3-bis(oxidanylidene)isoindol-4-yl]ethanamide

> <PUBCHEM_IUPAC_TRADITIONAL_NAME>
N-[2-[(1S)-1-(3-ethoxy-4-methoxy-phenyl)-2-mesyl-ethyl]-1,3-diketo-isoindolin-4-yl]acetamide

> <PUBCHEM_IUPAC_INCHI>
InChI=1S/C22H24N2O7S/c1-5-31-19-11-14(9-10-18(19)30-3)17(12-32(4,28)29)24-21(26)15-7-6-8-16(23-13(2)25)20(15)22(24)27/h6-11,17H,5,12H2,1-4H3,(H,23,25)/t17-/m1/s1

> <PUBCHEM_IUPAC_INCHIKEY>
IMOZEMNVLZVGJZ-QGZVFWFLSA-N

> <PUBCHEM_XLOGP3_AA>
1.8

> <PUBCHEM_EXACT_MASS>
460.13042228

> <PUBCHEM_MOLECULAR_FORMULA>
C22H24N2O7S

> <PUBCHEM_MOLECULAR_WEIGHT>
460.5

> <PUBCHEM_OPENEYE_CAN_SMILES>
CCOC1=C(C=CC(=C1)C(CS(=O)(=O)C)N2C(=O)C3=C(C2=O)C(=CC=C3)NC(=O)C)OC

> <PUBCHEM_OPENEYE_ISO_SMILES>
CCOC1=C(C=CC(=C1)[C@@H](CS(=O)(=O)C)N2C(=O)C3=C(C2=O)C(=CC=C3)NC(=O)C)OC

> <PUBCHEM_CACTVS_TPSA>
128

> <PUBCHEM_MONOISOTOPIC_WEIGHT>
460.13042228

> <PUBCHEM_TOTAL_CHARGE>
0

> <PUBCHEM_HEAVY_ATOM_COUNT>
32

> <PUBCHEM_ATOM_DEF_STEREO_COUNT>
1

> <PUBCHEM_ATOM_UDEF_STEREO_COUNT>
0

> <PUBCHEM_BOND_DEF_STEREO_COUNT>
0

> <PUBCHEM_BOND_UDEF_STEREO_COUNT>
0

> <PUBCHEM_ISOTOPIC_ATOM_COUNT>
0

> <PUBCHEM_COMPONENT_COUNT>
1

> <PUBCHEM_CACTVS_TAUTO_COUNT>
9

> <PUBCHEM_COORDINATE_TYPE>
1
5
255

> <PUBCHEM_BONDANNOTATIONS>
11  12  6
13  18  8
13  19  8
16  17  8
16  20  8
17  22  8
18  23  8
19  24  8
20  25  8
22  27  8
23  26  8
24  26  8
25  27  8

$$$$
57030
  -OEChem-03012215082D

 43 46  0     0  0  0  0  0  0999 V2000
    2.0000    1.4642    0.0000 F   0  0  0  0  0  0  0  0  0  0  0  0
    8.9942   -3.5600    0.0000 F   0  0  0  0  0  0  0  0  0  0  0  0
    6.3961    2.9400    0.0000 O   0  0  0  0  0  0  0  0  0  0  0  0
    4.6641    2.9400    0.0000 O   0  0  0  0  0  0  0  0  0  0  0  0
    5.5301   -0.5600    0.0000 N   0  0  0  0  0  0  0  0  0  0  0  0
    6.3961    0.9400    0.0000 C   0  0  0  0  0  0  0  0  0  0  0  0
    6.3961   -0.0600    0.0000 C   0  0  0  0  0  0  0  0  0  0  0  0
    5.5301    1.4400    0.0000 C   0  0  0  0  0  0  0  0  0  0  0  0
    4.6641    0.9400    0.0000 C   0  0  0  0  0  0  0  0  0  0  0  0
    7.2622   -0.5600    0.0000 C   0  0  0  0  0  0  0  0  0  0  0  0
    4.6641   -0.0600    0.0000 C   0  0  0  0  0  0  0  0  0  0  0  0
    8.9942   -1.5600    0.0000 C   0  0  0  0  0  0  0  0  0  0  0  0
    7.2622    1.4400    0.0000 C   0  0  0  0  0  0  0  0  0  0  0  0
    7.2622   -1.5600    0.0000 C   0  0  0  0  0  0  0  0  0  0  0  0
    8.1282   -0.0600    0.0000 C   0  0  0  0  0  0  0  0  0  0  0  0
    3.7702    1.4747    0.0000 C   0  0  0  0  0  0  0  0  0  0  0  0
    3.7702   -0.5947    0.0000 C   0  0  0  0  0  0  0  0  0  0  0  0
    8.1282   -2.0600    0.0000 C   0  0  0  0  0  0  0  0  0  0  0  0
    8.9942   -0.5600    0.0000 C   0  0  0  0  0  0  0  0  0  0  0  0
    9.8602   -2.0600    0.0000 C   0  0  0  0  0  0  0  0  0  0  0  0
    5.5301    2.4400    0.0000 C   0  0  0  0  0  0  0  0  0  0  0  0
    2.8641    0.9608    0.0000 C   0  0  0  0  0  0  0  0  0  0  0  0
    2.8641   -0.0808    0.0000 C   0  0  0  0  0  0  0  0  0  0  0  0
    9.8602   -3.0600    0.0000 C   0  0  0  0  0  0  0  0  0  0  0  0
   10.7263   -1.5600    0.0000 C   0  0  0  0  0  0  0  0  0  0  0  0
   10.7263   -3.5600    0.0000 C   0  0  0  0  0  0  0  0  0  0  0  0
   11.5923   -2.0600    0.0000 C   0  0  0  0  0  0  0  0  0  0  0  0
   11.5923   -3.0600    0.0000 C   0  0  0  0  0  0  0  0  0  0  0  0
    7.5722    0.9031    0.0000 H   0  0  0  0  0  0  0  0  0  0  0  0
    7.7991    1.7500    0.0000 H   0  0  0  0  0  0  0  0  0  0  0  0
    6.9522    1.9769    0.0000 H   0  0  0  0  0  0  0  0  0  0  0  0
    6.7252   -1.8700    0.0000 H   0  0  0  0  0  0  0  0  0  0  0  0
    8.1282    0.5600    0.0000 H   0  0  0  0  0  0  0  0  0  0  0  0
    3.7773    2.0946    0.0000 H   0  0  0  0  0  0  0  0  0  0  0  0
    3.7773   -1.2146    0.0000 H   0  0  0  0  0  0  0  0  0  0  0  0
    8.1282   -2.6800    0.0000 H   0  0  0  0  0  0  0  0  0  0  0  0
    9.5312   -0.2500    0.0000 H   0  0  0  0  0  0  0  0  0  0  0  0
    2.3284   -0.3929    0.0000 H   0  0  0  0  0  0  0  0  0  0  0  0
   10.7263   -0.9400    0.0000 H   0  0  0  0  0  0  0  0  0  0  0  0
   10.7263   -4.1800    0.0000 H   0  0  0  0  0  0  0  0  0  0  0  0
   12.1292   -1.7500    0.0000 H   0  0  0  0  0  0  0  0  0  0  0  0
   12.1292   -3.3700    0.0000 H   0  0  0  0  0  0  0  0  0  0  0  0
    6.3961    3.5600    0.0000 H   0  0  0  0  0  0  0  0  0  0  0  0
  1 22  1  0  0  0  0
  2 24  1  0  0  0  0
  3 21  1  0  0  0  0
  3 43  1  0  0  0  0
  4 21  2  0  0  0  0
  5  7  2  0  0  0  0
  5 11  1  0  0  0  0
  6  7  1  0  0  0  0
  6  8  2  0  0  0  0
  6 13  1  0  0  0  0
  7 10  1  0  0  0  0
  8  9  1  0  0  0  0
  8 21  1  0  0  0  0
  9 11  2  0  0  0  0
  9 16  1  0  0  0  0
 10 14  2  0  0  0  0
 10 15  1  0  0  0  0
 11 17  1  0  0  0  0
 12 18  2  0  0  0  0
 12 19  1  0  0  0  0
 12 20  1  0  0  0  0
 13 29  1  0  0  0  0
 13 30  1  0  0  0  0
 13 31  1  0  0  0  0
 14 18  1  0  0  0  0
 14 32  1  0  0  0  0
 15 19  2  0  0  0  0
 15 33  1  0  0  0  0
 16 22  2  0  0  0  0
 16 34  1  0  0  0  0
 17 23  2  0  0  0  0
 17 35  1  0  0  0  0
 18 36  1  0  0  0  0
 19 37  1  0  0  0  0
 20 24  1  0  0  0  0
 20 25  2  0  0  0  0
 22 23  1  0  0  0  0
 23 38  1  0  0  0  0
 24 26  2  0  0  0  0
 25 27  1  0  0  0  0
 25 39  1  0  0  0  0
 26 28  1  0  0  0  0
 26 40  1  0  0  0  0
 27 28  2  0  0  0  0
 27 41  1  0  0  0  0
 28 42  1  0  0  0  0
M  END
> <PUBCHEM_COMPOUND_CID>
57030

> <PUBCHEM_COMPOUND_CANONICALIZED>
1

> <PUBCHEM_CACTVS_COMPLEXITY>
551

> <PUBCHEM_CACTVS_HBOND_ACCEPTOR>
5

> <PUBCHEM_CACTVS_HBOND_DONOR>
1

> <PUBCHEM_CACTVS_ROTATABLE_BOND>
3

> <PUBCHEM_CACTVS_SUBSKEYS>
AAADccB6MYAAAAAAAAAAAAAAAAAAAAAAAAA8YMEAAAAAAACx9AAAHwAACAAADAiBnggyyPIIEgCoAyTyTACCgCAlAiAImCEwbNgIJvLAlZGEcQhkwAHI2Qe8yPCOwAAAAAACAACAAAAAAAQAAAAAAAAAAA==

> <PUBCHEM_IUPAC_OPENEYE_NAME>
6-fluoro-2-[4-(2-fluorophenyl)phenyl]-3-methyl-quinoline-4-carboxylic acid

> <PUBCHEM_IUPAC_CAS_NAME>
6-fluoro-2-[4-(2-fluorophenyl)phenyl]-3-methyl-4-quinolinecarboxylic acid

> <PUBCHEM_IUPAC_NAME_MARKUP>
6-fluoro-2-[4-(2-fluorophenyl)phenyl]-3-methylquinoline-4-carboxylic acid

> <PUBCHEM_IUPAC_NAME>
6-fluoro-2-[4-(2-fluorophenyl)phenyl]-3-methylquinoline-4-carboxylic acid

> <PUBCHEM_IUPAC_SYSTEMATIC_NAME>
6-fluoranyl-2-[4-(2-fluorophenyl)phenyl]-3-methyl-quinoline-4-carboxylic acid

> <PUBCHEM_IUPAC_TRADITIONAL_NAME>
6-fluoro-2-[4-(2-fluorophenyl)phenyl]-3-methyl-cinchoninic acid

> <PUBCHEM_IUPAC_INCHI>
InChI=1S/C23H15F2NO2/c1-13-21(23(27)28)18-12-16(24)10-11-20(18)26-22(13)15-8-6-14(7-9-15)17-4-2-3-5-19(17)25/h2-12H,1H3,(H,27,28)

> <PUBCHEM_IUPAC_INCHIKEY>
PHEZJEYUWHETKO-UHFFFAOYSA-N

> <PUBCHEM_XLOGP3_AA>
5.6

> <PUBCHEM_EXACT_MASS>
375.10708505

> <PUBCHEM_MOLECULAR_FORMULA>
C23H15F2NO2

> <PUBCHEM_MOLECULAR_WEIGHT>
375.4

> <PUBCHEM_OPENEYE_CAN_SMILES>
CC1=C(C2=C(C=CC(=C2)F)N=C1C3=CC=C(C=C3)C4=CC=CC=C4F)C(=O)O

> <PUBCHEM_OPENEYE_ISO_SMILES>
CC1=C(C2=C(C=CC(=C2)F)N=C1C3=CC=C(C=C3)C4=CC=CC=C4F)C(=O)O

> <PUBCHEM_CACTVS_TPSA>
50.2

> <PUBCHEM_MONOISOTOPIC_WEIGHT>
375.10708505

> <PUBCHEM_TOTAL_CHARGE>
0

> <PUBCHEM_HEAVY_ATOM_COUNT>
28

> <PUBCHEM_ATOM_DEF_STEREO_COUNT>
0

> <PUBCHEM_ATOM_UDEF_STEREO_COUNT>
0

> <PUBCHEM_BOND_DEF_STEREO_COUNT>
0

> <PUBCHEM_BOND_UDEF_STEREO_COUNT>
0

> <PUBCHEM_ISOTOPIC_ATOM_COUNT>
0

> <PUBCHEM_COMPONENT_COUNT>
1

> <PUBCHEM_CACTVS_TAUTO_COUNT>
-1

> <PUBCHEM_COORDINATE_TYPE>
1
5
255

> <PUBCHEM_BONDANNOTATIONS>
10  14  8
10  15  8
11  17  8
12  18  8
12  19  8
14  18  8
15  19  8
16  22  8
17  23  8
20  24  8
20  25  8
22  23  8
24  26  8
25  27  8
26  28  8
27  28  8
5  11  8
5  7  8
6  7  8
6  8  8
8  9  8
9  11  8
9  16  8

$$$$
10077130
  -OEChem-03012215082D

 69 73  0     1  0  0  0  0  0999 V2000
    9.8602    5.1276    0.0000 F   0  0  0  0  0  0  0  0  0  0  0  0
   11.3901   -3.3724    0.0000 O   0  0  0  0  0  0  0  0  0  0  0  0
   11.1171   -5.1276    0.0000 O   0  0  0  0  0  0  0  0  0  0  0  0
    3.7320   -4.4032    0.0000 O   0  0  0  0  0  0  0  0  0  0  0  0
    4.5923   -2.8999    0.0000 O   0  0  0  0  0  0  0  0  0  0  0  0
    5.4641   -4.3965    0.0000 N   0  0  0  0  0  0  0  0  0  0  0  0
    7.2622    0.6276    0.0000 N   0  0  0  0  0  0  0  0  0  0  0  0
    8.1282   -2.8724    0.0000 C   0  0  2  0  0  0  0  0  0  0  0  0
    8.1282   -3.8724    0.0000 C   0  0  2  0  0  0  0  0  0  0  0  0
    9.8602   -2.8724    0.0000 C   0  0  1  0  0  0  0  0  0  0  0  0
    8.9942   -2.3724    0.0000 C   0  0  1  0  0  0  0  0  0  0  0  0
    9.8602   -3.8724    0.0000 C   0  0  1  0  0  0  0  0  0  0  0  0
    8.9942   -4.3724    0.0000 C   0  0  0  0  0  0  0  0  0  0  0  0
    7.2342   -2.3377    0.0000 C   0  0  0  0  0  0  0  0  0  0  0  0
    7.2342   -4.4070    0.0000 C   0  0  0  0  0  0  0  0  0  0  0  0
   10.8064   -2.5676    0.0000 C   0  0  1  0  0  0  0  0  0  0  0  0
    6.3282   -3.8932    0.0000 C   0  0  1  0  0  0  0  0  0  0  0  0
    6.3282   -2.8516    0.0000 C   0  0  0  0  0  0  0  0  0  0  0  0
   10.8064   -4.1771    0.0000 C   0  0  0  0  0  0  0  0  0  0  0  0
    8.9942   -1.3724    0.0000 C   0  0  0  0  0  0  0  0  0  0  0  0
   11.1171   -1.6171    0.0000 C   0  0  0  0  0  0  0  0  0  0  0  0
    8.1282   -0.8724    0.0000 C   0  0  0  0  0  0  0  0  0  0  0  0
    4.5961   -3.8999    0.0000 C   0  0  0  0  0  0  0  0  0  0  0  0
    8.1282    0.1276    0.0000 C   0  0  0  0  0  0  0  0  0  0  0  0
    8.9942    0.6276    0.0000 C   0  0  0  0  0  0  0  0  0  0  0  0
    2.8641   -3.9065    0.0000 C   0  0  0  0  0  0  0  0  0  0  0  0
    8.9942    1.6276    0.0000 C   0  0  0  0  0  0  0  0  0  0  0  0
    7.2622    1.6276    0.0000 C   0  0  0  0  0  0  0  0  0  0  0  0
    8.1282    2.1276    0.0000 C   0  0  0  0  0  0  0  0  0  0  0  0
    2.0000   -4.4099    0.0000 C   0  0  0  0  0  0  0  0  0  0  0  0
    8.1282    3.1276    0.0000 C   0  0  0  0  0  0  0  0  0  0  0  0
    8.9942    3.6276    0.0000 C   0  0  0  0  0  0  0  0  0  0  0  0
    7.2622    3.6276    0.0000 C   0  0  0  0  0  0  0  0  0  0  0  0
    8.9942    4.6276    0.0000 C   0  0  0  0  0  0  0  0  0  0  0  0
    7.2622    4.6276    0.0000 C   0  0  0  0  0  0  0  0  0  0  0  0
    8.1282    5.1276    0.0000 C   0  0  0  0  0  0  0  0  0  0  0  0
    8.1347   -2.0224    0.0000 H   0  0  0  0  0  0  0  0  0  0  0  0
    8.1347   -4.7223    0.0000 H   0  0  0  0  0  0  0  0  0  0  0  0
    9.9502   -2.0271    0.0000 H   0  0  0  0  0  0  0  0  0  0  0  0
    9.5311   -2.0624    0.0000 H   0  0  0  0  0  0  0  0  0  0  0  0
    9.9502   -4.7176    0.0000 H   0  0  0  0  0  0  0  0  0  0  0  0
    8.5957   -4.8473    0.0000 H   0  0  0  0  0  0  0  0  0  0  0  0
    9.3927   -4.8473    0.0000 H   0  0  0  0  0  0  0  0  0  0  0  0
    7.6388   -1.8679    0.0000 H   0  0  0  0  0  0  0  0  0  0  0  0
    6.8406   -1.8587    0.0000 H   0  0  0  0  0  0  0  0  0  0  0  0
    6.8406   -4.8860    0.0000 H   0  0  0  0  0  0  0  0  0  0  0  0
    7.6388   -4.8768    0.0000 H   0  0  0  0  0  0  0  0  0  0  0  0
   11.4189   -2.4714    0.0000 H   0  0  0  0  0  0  0  0  0  0  0  0
    5.7906   -3.5842    0.0000 H   0  0  0  0  0  0  0  0  0  0  0  0
    6.1191   -2.2679    0.0000 H   0  0  0  0  0  0  0  0  0  0  0  0
    5.7173   -2.9576    0.0000 H   0  0  0  0  0  0  0  0  0  0  0  0
    9.5311   -1.0624    0.0000 H   0  0  0  0  0  0  0  0  0  0  0  0
   11.7064   -1.8097    0.0000 H   0  0  0  0  0  0  0  0  0  0  0  0
   11.3097   -1.0278    0.0000 H   0  0  0  0  0  0  0  0  0  0  0  0
   10.5278   -1.4245    0.0000 H   0  0  0  0  0  0  0  0  0  0  0  0
    5.4665   -5.0165    0.0000 H   0  0  0  0  0  0  0  0  0  0  0  0
    7.5912   -1.1824    0.0000 H   0  0  0  0  0  0  0  0  0  0  0  0
    9.5311    0.3176    0.0000 H   0  0  0  0  0  0  0  0  0  0  0  0
    3.2608   -3.4301    0.0000 H   0  0  0  0  0  0  0  0  0  0  0  0
    2.4637   -3.4331    0.0000 H   0  0  0  0  0  0  0  0  0  0  0  0
    9.5311    1.9376    0.0000 H   0  0  0  0  0  0  0  0  0  0  0  0
    6.7252    1.9376    0.0000 H   0  0  0  0  0  0  0  0  0  0  0  0
    1.6879   -3.8741    0.0000 H   0  0  0  0  0  0  0  0  0  0  0  0
    1.4643   -4.7219    0.0000 H   0  0  0  0  0  0  0  0  0  0  0  0
    2.3121   -4.9456    0.0000 H   0  0  0  0  0  0  0  0  0  0  0  0
    9.5311    3.3176    0.0000 H   0  0  0  0  0  0  0  0  0  0  0  0
    6.7252    3.3176    0.0000 H   0  0  0  0  0  0  0  0  0  0  0  0
    6.7252    4.9376    0.0000 H   0  0  0  0  0  0  0  0  0  0  0  0
    8.1282    5.7476    0.0000 H   0  0  0  0  0  0  0  0  0  0  0  0
  1 34  1  0  0  0  0
  2 16  1  0  0  0  0
  2 19  1  0  0  0  0
  3 19  2  0  0  0  0
  4 23  1  0  0  0  0
  4 26  1  0  0  0  0
  5 23  2  0  0  0  0
 17  6  1  6  0  0  0
  6 23  1  0  0  0  0
  6 56  1  0  0  0  0
  7 24  2  0  0  0  0
  7 28  1  0  0  0  0
  8  9  1  0  0  0  0
  8 11  1  0  0  0  0
  8 14  1  0  0  0  0
  8 37  1  6  0  0  0
  9 13  1  0  0  0  0
  9 15  1  0  0  0  0
  9 38  1  1  0  0  0
 10 11  1  0  0  0  0
 10 12  1  0  0  0  0
 10 16  1  0  0  0  0
 10 39  1  1  0  0  0
 11 20  1  6  0  0  0
 11 40  1  0  0  0  0
 12 13  1  0  0  0  0
 12 19  1  0  0  0  0
 12 41  1  1  0  0  0
 13 42  1  0  0  0  0
 13 43  1  0  0  0  0
 14 18  1  0  0  0  0
 14 44  1  0  0  0  0
 14 45  1  0  0  0  0
 15 17  1  0  0  0  0
 15 46  1  0  0  0  0
 15 47  1  0  0  0  0
 16 21  1  1  0  0  0
 16 48  1  0  0  0  0
 17 18  1  0  0  0  0
 17 49  1  0  0  0  0
 18 50  1  0  0  0  0
 18 51  1  0  0  0  0
 20 22  2  0  0  0  0
 20 52  1  0  0  0  0
 21 53  1  0  0  0  0
 21 54  1  0  0  0  0
 21 55  1  0  0  0  0
 22 24  1  0  0  0  0
 22 57  1  0  0  0  0
 24 25  1  0  0  0  0
 25 27  2  0  0  0  0
 25 58  1  0  0  0  0
 26 30  1  0  0  0  0
 26 59  1  0  0  0  0
 26 60  1  0  0  0  0
 27 29  1  0  0  0  0
 27 61  1  0  0  0  0
 28 29  2  0  0  0  0
 28 62  1  0  0  0  0
 29 31  1  0  0  0  0
 30 63  1  0  0  0  0
 30 64  1  0  0  0  0
 30 65  1  0  0  0  0
 31 32  2  0  0  0  0
 31 33  1  0  0  0  0
 32 34  1  0  0  0  0
 32 66  1  0  0  0  0
 33 35  2  0  0  0  0
 33 67  1  0  0  0  0
 34 36  2  0  0  0  0
 35 36  1  0  0  0  0
 35 68  1  0  0  0  0
 36 69  1  0  0  0  0
M  END
> <PUBCHEM_COMPOUND_CID>
10077130

> <PUBCHEM_COMPOUND_CANONICALIZED>
1

> <PUBCHEM_CACTVS_COMPLEXITY>
821

> <PUBCHEM_CACTVS_HBOND_ACCEPTOR>
6

> <PUBCHEM_CACTVS_HBOND_DONOR>
1

> <PUBCHEM_CACTVS_ROTATABLE_BOND>
6

> <PUBCHEM_CACTVS_SUBSKEYS>
AAADcfB7OQAAAAAAAAAAAAAAAAAAASAAAAA8YMEAAAAAAEjBwAAAHwAQAAAADTzhng4+iJLIFACoAzT3XACCgCAxAiAI2KE4ZJkIIPLAkZGOIAhklgDIyAeayPCOgAAAAAAAAACQAASAACAAAAAAAAAAAA==

> <PUBCHEM_IUPAC_OPENEYE_NAME>
ethyl N-[(1R,3aR,4aR,6R,8aR,9S,9aS)-9-[(E)-2-[5-(3-fluorophenyl)-2-pyridyl]vinyl]-1-methyl-3-oxo-3a,4,4a,5,6,7,8,8a,9,9a-decahydro-1H-benzo[f]isobenzofuran-6-yl]carbamate

> <PUBCHEM_IUPAC_CAS_NAME>
N-[(1R,3aR,4aR,6R,8aR,9S,9aS)-9-[(E)-2-[5-(3-fluorophenyl)-2-pyridinyl]ethenyl]-1-methyl-3-oxo-3a,4,4a,5,6,7,8,8a,9,9a-decahydro-1H-benzo[f]isobenzofuran-6-yl]carbamic acid ethyl ester

> <PUBCHEM_IUPAC_NAME_MARKUP>
ethyl <I>N</I>-[(1<I>R</I>,3<I>a</I><I>R</I>,4<I>a</I><I>R</I>,6<I>R</I>,8<I>a</I><I>R</I>,9<I>S</I>,9<I>a</I><I>S</I>)-9-[(<I>E</I>)-2-[5-(3-fluorophenyl)pyridin-2-yl]ethenyl]-1-methyl-3-oxo-3<I>a</I>,4,4<I>a</I>,5,6,7,8,8<I>a</I>,9,9<I>a</I>-decahydro-1<I>H</I>-benzo[f][2]benzofuran-6-yl]carbamate

> <PUBCHEM_IUPAC_NAME>
ethyl N-[(1R,3aR,4aR,6R,8aR,9S,9aS)-9-[(E)-2-[5-(3-fluorophenyl)pyridin-2-yl]ethenyl]-1-methyl-3-oxo-3a,4,4a,5,6,7,8,8a,9,9a-decahydro-1H-benzo[f][2]benzofuran-6-yl]carbamate

> <PUBCHEM_IUPAC_SYSTEMATIC_NAME>
ethyl N-[(1R,3aR,4aR,6R,8aR,9S,9aS)-9-[(E)-2-[5-(3-fluorophenyl)pyridin-2-yl]ethenyl]-1-methyl-3-oxidanylidene-3a,4,4a,5,6,7,8,8a,9,9a-decahydro-1H-benzo[f][2]benzofuran-6-yl]carbamate

> <PUBCHEM_IUPAC_TRADITIONAL_NAME>
N-[(1R,3aR,4aR,6R,8aR,9S,9aS)-9-[(E)-2-[5-(3-fluorophenyl)-2-pyridyl]vinyl]-3-keto-1-methyl-3a,4,4a,5,6,7,8,8a,9,9a-decahydro-1H-benz[f]isobenzofuran-6-yl]carbamic acid ethyl ester

> <PUBCHEM_IUPAC_INCHI>
InChI=1S/C29H33FN2O4/c1-3-35-29(34)32-23-10-11-24-20(14-23)15-26-27(17(2)36-28(26)33)25(24)12-9-22-8-7-19(16-31-22)18-5-4-6-21(30)13-18/h4-9,12-13,16-17,20,23-27H,3,10-11,14-15H2,1-2H3,(H,32,34)/b12-9+/t17-,20+,23-,24-,25+,26-,27+/m1/s1

> <PUBCHEM_IUPAC_INCHIKEY>
ZBGXUVOIWDMMJE-QHNZEKIYSA-N

> <PUBCHEM_XLOGP3_AA>
5.3

> <PUBCHEM_EXACT_MASS>
492.24243570

> <PUBCHEM_MOLECULAR_FORMULA>
C29H33FN2O4

> <PUBCHEM_MOLECULAR_WEIGHT>
492.6

> <PUBCHEM_OPENEYE_CAN_SMILES>
CCOC(=O)NC1CCC2C(C1)CC3C(C2C=CC4=NC=C(C=C4)C5=CC(=CC=C5)F)C(OC3=O)C

> <PUBCHEM_OPENEYE_ISO_SMILES>
CCOC(=O)N[C@@H]1CC[C@@H]2[C@@H](C1)C[C@@H]3[C@H]([C@H]2/C=C/C4=NC=C(C=C4)C5=CC(=CC=C5)F)[C@H](OC3=O)C

> <PUBCHEM_CACTVS_TPSA>
77.5

> <PUBCHEM_MONOISOTOPIC_WEIGHT>
492.24243570

> <PUBCHEM_TOTAL_CHARGE>
0

> <PUBCHEM_HEAVY_ATOM_COUNT>
36

> <PUBCHEM_ATOM_DEF_STEREO_COUNT>
7

> <PUBCHEM_ATOM_UDEF_STEREO_COUNT>
0

> <PUBCHEM_BOND_DEF_STEREO_COUNT>
1

> <PUBCHEM_BOND_UDEF_STEREO_COUNT>
0

> <PUBCHEM_ISOTOPIC_ATOM_COUNT>
0

> <PUBCHEM_COMPONENT_COUNT>
1

> <PUBCHEM_CACTVS_TAUTO_COUNT>
4

> <PUBCHEM_COORDINATE_TYPE>
1
5
255

> <PUBCHEM_BONDANNOTATIONS>
10  39  5
11  20  6
12  41  5
16  21  5
24  25  8
25  27  8
27  29  8
28  29  8
31  32  8
31  33  8
32  34  8
33  35  8
34  36  8
35  36  8
17  6  6
7  24  8
7  28  8
8  37  6
9  38  5

$$$$
9960925
  -OEChem-03012215082D

115114  0     1  0  0  0  0  0999 V2000
   15.8564   -1.7500    0.0000 O   0  0  0  0  0  0  0  0  0  0  0  0
   18.4545   -1.2500    0.0000 O   0  0  0  0  0  0  0  0  0  0  0  0
   14.9904   -0.2500    0.0000 O   0  0  0  0  0  0  0  0  0  0  0  0
   16.7224   -3.2500    0.0000 O   0  0  0  0  0  0  0  0  0  0  0  0
   19.3205   -2.7500    0.0000 O   0  0  0  0  0  0  0  0  0  0  0  0
   17.5885   -4.7500    0.0000 O   0  0  0  0  0  0  0  0  0  0  0  0
    8.0622   -1.2500    0.0000 C   0  0  0  0  0  0  0  0  0  0  0  0
    8.9282   -1.7500    0.0000 C   0  0  0  0  0  0  0  0  0  0  0  0
    7.1962   -1.7500    0.0000 C   0  0  0  0  0  0  0  0  0  0  0  0
    9.7942   -1.2500    0.0000 C   0  0  0  0  0  0  0  0  0  0  0  0
    6.3301   -1.2500    0.0000 C   0  0  0  0  0  0  0  0  0  0  0  0
   10.6603   -1.7500    0.0000 C   0  0  0  0  0  0  0  0  0  0  0  0
    5.4641   -1.7500    0.0000 C   0  0  0  0  0  0  0  0  0  0  0  0
   11.5263   -1.2500    0.0000 C   0  0  0  0  0  0  0  0  0  0  0  0
    4.5981   -1.2500    0.0000 C   0  0  0  0  0  0  0  0  0  0  0  0
   12.3923   -1.7500    0.0000 C   0  0  0  0  0  0  0  0  0  0  0  0
    3.7320   -1.7500    0.0000 C   0  0  0  0  0  0  0  0  0  0  0  0
   13.2583   -1.2500    0.0000 C   0  0  0  0  0  0  0  0  0  0  0  0
    2.8660   -1.2500    0.0000 C   0  0  0  0  0  0  0  0  0  0  0  0
   14.1244   -1.7500    0.0000 C   0  0  0  0  0  0  0  0  0  0  0  0
   22.7846   -1.7500    0.0000 C   0  0  0  0  0  0  0  0  0  0  0  0
   21.9186   -1.2500    0.0000 C   0  0  0  0  0  0  0  0  0  0  0  0
   23.6506   -1.2500    0.0000 C   0  0  0  0  0  0  0  0  0  0  0  0
   21.0526   -1.7500    0.0000 C   0  0  0  0  0  0  0  0  0  0  0  0
    2.0000   -1.7500    0.0000 C   0  0  0  0  0  0  0  0  0  0  0  0
   24.5167   -1.7500    0.0000 C   0  0  0  0  0  0  0  0  0  0  0  0
   14.9904   -1.2500    0.0000 C   0  0  0  0  0  0  0  0  0  0  0  0
   20.1865   -1.2500    0.0000 C   0  0  0  0  0  0  0  0  0  0  0  0
   25.3827   -1.2500    0.0000 C   0  0  0  0  0  0  0  0  0  0  0  0
   17.5885   -1.7500    0.0000 C   0  0  3  0  0  0  0  0  0  0  0  0
   16.7224   -1.2500    0.0000 C   0  0  0  0  0  0  0  0  0  0  0  0
   19.3205   -1.7500    0.0000 C   0  0  0  0  0  0  0  0  0  0  0  0
   26.2487   -1.7500    0.0000 C   0  0  0  0  0  0  0  0  0  0  0  0
   17.5885   -2.7500    0.0000 C   0  0  0  0  0  0  0  0  0  0  0  0
   27.1147   -1.2500    0.0000 C   0  0  0  0  0  0  0  0  0  0  0  0
   27.1147   -0.2500    0.0000 C   0  0  0  0  0  0  0  0  0  0  0  0
   27.1147    2.7500    0.0000 C   0  0  0  0  0  0  0  0  0  0  0  0
   26.2487    3.2500    0.0000 C   0  0  0  0  0  0  0  0  0  0  0  0
   27.1147    1.7500    0.0000 C   0  0  0  0  0  0  0  0  0  0  0  0
   27.9808    0.2500    0.0000 C   0  0  0  0  0  0  0  0  0  0  0  0
   26.2487    4.2500    0.0000 C   0  0  0  0  0  0  0  0  0  0  0  0
   27.9808    1.2500    0.0000 C   0  0  0  0  0  0  0  0  0  0  0  0
   25.3827    4.7500    0.0000 C   0  0  0  0  0  0  0  0  0  0  0  0
   16.7224   -4.2500    0.0000 C   0  0  0  0  0  0  0  0  0  0  0  0
   15.8564   -4.7500    0.0000 C   0  0  0  0  0  0  0  0  0  0  0  0
    8.5297   -2.2250    0.0000 H   0  0  0  0  0  0  0  0  0  0  0  0
    9.3267   -2.2250    0.0000 H   0  0  0  0  0  0  0  0  0  0  0  0
    8.4607   -0.7751    0.0000 H   0  0  0  0  0  0  0  0  0  0  0  0
    7.6636   -0.7751    0.0000 H   0  0  0  0  0  0  0  0  0  0  0  0
    6.7976   -2.2250    0.0000 H   0  0  0  0  0  0  0  0  0  0  0  0
    7.5947   -2.2250    0.0000 H   0  0  0  0  0  0  0  0  0  0  0  0
   10.1928   -0.7751    0.0000 H   0  0  0  0  0  0  0  0  0  0  0  0
    9.3957   -0.7751    0.0000 H   0  0  0  0  0  0  0  0  0  0  0  0
    6.7287   -0.7751    0.0000 H   0  0  0  0  0  0  0  0  0  0  0  0
    5.9316   -0.7751    0.0000 H   0  0  0  0  0  0  0  0  0  0  0  0
   10.2617   -2.2250    0.0000 H   0  0  0  0  0  0  0  0  0  0  0  0
   11.0588   -2.2250    0.0000 H   0  0  0  0  0  0  0  0  0  0  0  0
    5.0656   -2.2250    0.0000 H   0  0  0  0  0  0  0  0  0  0  0  0
    5.8626   -2.2250    0.0000 H   0  0  0  0  0  0  0  0  0  0  0  0
   11.9248   -0.7751    0.0000 H   0  0  0  0  0  0  0  0  0  0  0  0
   11.1278   -0.7751    0.0000 H   0  0  0  0  0  0  0  0  0  0  0  0
    4.9966   -0.7751    0.0000 H   0  0  0  0  0  0  0  0  0  0  0  0
    4.1996   -0.7751    0.0000 H   0  0  0  0  0  0  0  0  0  0  0  0
   11.9938   -2.2250    0.0000 H   0  0  0  0  0  0  0  0  0  0  0  0
   12.7908   -2.2250    0.0000 H   0  0  0  0  0  0  0  0  0  0  0  0
    3.3335   -2.2250    0.0000 H   0  0  0  0  0  0  0  0  0  0  0  0
    4.1306   -2.2250    0.0000 H   0  0  0  0  0  0  0  0  0  0  0  0
   13.6569   -0.7751    0.0000 H   0  0  0  0  0  0  0  0  0  0  0  0
   12.8598   -0.7751    0.0000 H   0  0  0  0  0  0  0  0  0  0  0  0
    3.2646   -0.7751    0.0000 H   0  0  0  0  0  0  0  0  0  0  0  0
    2.4675   -0.7751    0.0000 H   0  0  0  0  0  0  0  0  0  0  0  0
   13.7258   -2.2250    0.0000 H   0  0  0  0  0  0  0  0  0  0  0  0
   14.5229   -2.2250    0.0000 H   0  0  0  0  0  0  0  0  0  0  0  0
   22.3861   -2.2250    0.0000 H   0  0  0  0  0  0  0  0  0  0  0  0
   23.1831   -2.2250    0.0000 H   0  0  0  0  0  0  0  0  0  0  0  0
   22.3171   -0.7751    0.0000 H   0  0  0  0  0  0  0  0  0  0  0  0
   21.5201   -0.7751    0.0000 H   0  0  0  0  0  0  0  0  0  0  0  0
   24.0492   -0.7751    0.0000 H   0  0  0  0  0  0  0  0  0  0  0  0
   23.2521   -0.7751    0.0000 H   0  0  0  0  0  0  0  0  0  0  0  0
   20.6540   -2.2250    0.0000 H   0  0  0  0  0  0  0  0  0  0  0  0
   21.4511   -2.2250    0.0000 H   0  0  0  0  0  0  0  0  0  0  0  0
    1.6900   -1.2131    0.0000 H   0  0  0  0  0  0  0  0  0  0  0  0
    1.4631   -2.0600    0.0000 H   0  0  0  0  0  0  0  0  0  0  0  0
    2.3100   -2.2869    0.0000 H   0  0  0  0  0  0  0  0  0  0  0  0
   24.1181   -2.2250    0.0000 H   0  0  0  0  0  0  0  0  0  0  0  0
   24.9152   -2.2250    0.0000 H   0  0  0  0  0  0  0  0  0  0  0  0
   20.5851   -0.7751    0.0000 H   0  0  0  0  0  0  0  0  0  0  0  0
   19.7880   -0.7751    0.0000 H   0  0  0  0  0  0  0  0  0  0  0  0
   25.7812   -0.7751    0.0000 H   0  0  0  0  0  0  0  0  0  0  0  0
   24.9842   -0.7751    0.0000 H   0  0  0  0  0  0  0  0  0  0  0  0
   17.5885   -1.1300    0.0000 H   0  0  0  0  0  0  0  0  0  0  0  0
   17.1210   -0.7751    0.0000 H   0  0  0  0  0  0  0  0  0  0  0  0
   16.3239   -0.7751    0.0000 H   0  0  0  0  0  0  0  0  0  0  0  0
   26.2487   -2.3700    0.0000 H   0  0  0  0  0  0  0  0  0  0  0  0
   17.8005   -3.3326    0.0000 H   0  0  0  0  0  0  0  0  0  0  0  0
   18.1990   -2.6423    0.0000 H   0  0  0  0  0  0  0  0  0  0  0  0
   27.6517   -1.5600    0.0000 H   0  0  0  0  0  0  0  0  0  0  0  0
   26.9027    0.3326    0.0000 H   0  0  0  0  0  0  0  0  0  0  0  0
   26.5042   -0.3577    0.0000 H   0  0  0  0  0  0  0  0  0  0  0  0
   27.7253    2.6423    0.0000 H   0  0  0  0  0  0  0  0  0  0  0  0
   27.3268    3.3326    0.0000 H   0  0  0  0  0  0  0  0  0  0  0  0
   25.6381    3.3577    0.0000 H   0  0  0  0  0  0  0  0  0  0  0  0
   26.0367    2.6674    0.0000 H   0  0  0  0  0  0  0  0  0  0  0  0
   26.5042    1.8577    0.0000 H   0  0  0  0  0  0  0  0  0  0  0  0
   26.9027    1.1674    0.0000 H   0  0  0  0  0  0  0  0  0  0  0  0
   28.5177   -0.0600    0.0000 H   0  0  0  0  0  0  0  0  0  0  0  0
   26.8593    4.1423    0.0000 H   0  0  0  0  0  0  0  0  0  0  0  0
   26.4608    4.8326    0.0000 H   0  0  0  0  0  0  0  0  0  0  0  0
   28.5177    1.5600    0.0000 H   0  0  0  0  0  0  0  0  0  0  0  0
   25.6927    5.2869    0.0000 H   0  0  0  0  0  0  0  0  0  0  0  0
   24.8458    5.0600    0.0000 H   0  0  0  0  0  0  0  0  0  0  0  0
   25.0727    4.2131    0.0000 H   0  0  0  0  0  0  0  0  0  0  0  0
   15.5464   -4.2131    0.0000 H   0  0  0  0  0  0  0  0  0  0  0  0
   15.3195   -5.0600    0.0000 H   0  0  0  0  0  0  0  0  0  0  0  0
   16.1664   -5.2869    0.0000 H   0  0  0  0  0  0  0  0  0  0  0  0
  1 27  1  0  0  0  0
  1 31  1  0  0  0  0
  2 30  1  0  0  0  0
  2 32  1  0  0  0  0
  3 27  2  0  0  0  0
  4 34  1  0  0  0  0
  4 44  1  0  0  0  0
  5 32  2  0  0  0  0
  6 44  2  0  0  0  0
  7  8  1  0  0  0  0
  7  9  1  0  0  0  0
  7 48  1  0  0  0  0
  7 49  1  0  0  0  0
  8 10  1  0  0  0  0
  8 46  1  0  0  0  0
  8 47  1  0  0  0  0
  9 11  1  0  0  0  0
  9 50  1  0  0  0  0
  9 51  1  0  0  0  0
 10 12  1  0  0  0  0
 10 52  1  0  0  0  0
 10 53  1  0  0  0  0
 11 13  1  0  0  0  0
 11 54  1  0  0  0  0
 11 55  1  0  0  0  0
 12 14  1  0  0  0  0
 12 56  1  0  0  0  0
 12 57  1  0  0  0  0
 13 15  1  0  0  0  0
 13 58  1  0  0  0  0
 13 59  1  0  0  0  0
 14 16  1  0  0  0  0
 14 60  1  0  0  0  0
 14 61  1  0  0  0  0
 15 17  1  0  0  0  0
 15 62  1  0  0  0  0
 15 63  1  0  0  0  0
 16 18  1  0  0  0  0
 16 64  1  0  0  0  0
 16 65  1  0  0  0  0
 17 19  1  0  0  0  0
 17 66  1  0  0  0  0
 17 67  1  0  0  0  0
 18 20  1  0  0  0  0
 18 68  1  0  0  0  0
 18 69  1  0  0  0  0
 19 25  1  0  0  0  0
 19 70  1  0  0  0  0
 19 71  1  0  0  0  0
 20 27  1  0  0  0  0
 20 72  1  0  0  0  0
 20 73  1  0  0  0  0
 21 22  1  0  0  0  0
 21 23  1  0  0  0  0
 21 74  1  0  0  0  0
 21 75  1  0  0  0  0
 22 24  1  0  0  0  0
 22 76  1  0  0  0  0
 22 77  1  0  0  0  0
 23 26  1  0  0  0  0
 23 78  1  0  0  0  0
 23 79  1  0  0  0  0
 24 28  1  0  0  0  0
 24 80  1  0  0  0  0
 24 81  1  0  0  0  0
 25 82  1  0  0  0  0
 25 83  1  0  0  0  0
 25 84  1  0  0  0  0
 26 29  1  0  0  0  0
 26 85  1  0  0  0  0
 26 86  1  0  0  0  0
 28 32  1  0  0  0  0
 28 87  1  0  0  0  0
 28 88  1  0  0  0  0
 29 33  1  0  0  0  0
 29 89  1  0  0  0  0
 29 90  1  0  0  0  0
 30 31  1  0  0  0  0
 30 34  1  0  0  0  0
 30 91  1  0  0  0  0
 31 92  1  0  0  0  0
 31 93  1  0  0  0  0
 33 35  2  0  0  0  0
 33 94  1  0  0  0  0
 34 95  1  0  0  0  0
 34 96  1  0  0  0  0
 35 36  1  0  0  0  0
 35 97  1  0  0  0  0
 36 40  1  0  0  0  0
 36 98  1  0  0  0  0
 36 99  1  0  0  0  0
 37 38  1  0  0  0  0
 37 39  1  0  0  0  0
 37100  1  0  0  0  0
 37101  1  0  0  0  0
 38 41  1  0  0  0  0
 38102  1  0  0  0  0
 38103  1  0  0  0  0
 39 42  1  0  0  0  0
 39104  1  0  0  0  0
 39105  1  0  0  0  0
 40 42  2  0  0  0  0
 40106  1  0  0  0  0
 41 43  1  0  0  0  0
 41107  1  0  0  0  0
 41108  1  0  0  0  0
 42109  1  0  0  0  0
 43110  1  0  0  0  0
 43111  1  0  0  0  0
 43112  1  0  0  0  0
 44 45  1  0  0  0  0
 45113  1  0  0  0  0
 45114  1  0  0  0  0
 45115  1  0  0  0  0
M  END
> <PUBCHEM_COMPOUND_CID>
9960925

> <PUBCHEM_COMPOUND_CANONICALIZED>
1

> <PUBCHEM_CACTVS_COMPLEXITY>
744

> <PUBCHEM_CACTVS_HBOND_ACCEPTOR>
6

> <PUBCHEM_CACTVS_HBOND_DONOR>
0

> <PUBCHEM_CACTVS_ROTATABLE_BOND>
36

> <PUBCHEM_CACTVS_SUBSKEYS>
AAADcfB8OAAAAAAAAAAAAAAAAAAAAAAAAAAAAAAAAAAAAAAAAAAAGgAAAAAACBSggAICCAAABACIACDSCAAAAAAgAAAICAEAAAgBABIAAQACAAAFgAAKAAOIyKCAAAAAAAAAAAAAAAAAAAAAAAAAAAAAAA==

> <PUBCHEM_IUPAC_OPENEYE_NAME>
[1-(acetoxymethyl)-2-hexadecanoyloxy-ethyl] (9Z,12Z)-octadeca-9,12-dienoate

> <PUBCHEM_IUPAC_CAS_NAME>
(9Z,12Z)-octadeca-9,12-dienoic acid [1-acetyloxy-3-(1-oxohexadecoxy)propan-2-yl] ester

> <PUBCHEM_IUPAC_NAME_MARKUP>
(1-acetyloxy-3-hexadecanoyloxypropan-2-yl) (9<I>Z</I>,12<I>Z</I>)-octadeca-9,12-dienoate

> <PUBCHEM_IUPAC_NAME>
(1-acetyloxy-3-hexadecanoyloxypropan-2-yl) (9Z,12Z)-octadeca-9,12-dienoate

> <PUBCHEM_IUPAC_SYSTEMATIC_NAME>
(1-acetyloxy-3-hexadecanoyloxy-propan-2-yl) (9Z,12Z)-octadeca-9,12-dienoate

> <PUBCHEM_IUPAC_TRADITIONAL_NAME>
(9Z,12Z)-octadeca-9,12-dienoic acid [1-(acetoxymethyl)-2-hexadecanoyloxy-ethyl] ester

> <PUBCHEM_IUPAC_INCHI>
InChI=1S/C39H70O6/c1-4-6-8-10-12-14-16-18-19-21-23-25-27-29-31-33-39(42)45-37(34-43-36(3)40)35-44-38(41)32-30-28-26-24-22-20-17-15-13-11-9-7-5-2/h12,14,18-19,37H,4-11,13,15-17,20-35H2,1-3H3/b14-12-,19-18-

> <PUBCHEM_IUPAC_INCHIKEY>
GAKUNXBDVGLOFS-DUZKARGPSA-N

> <PUBCHEM_XLOGP3_AA>
14.1

> <PUBCHEM_EXACT_MASS>
634.51723995

> <PUBCHEM_MOLECULAR_FORMULA>
C39H70O6

> <PUBCHEM_MOLECULAR_WEIGHT>
635.0

> <PUBCHEM_OPENEYE_CAN_SMILES>
CCCCCCCCCCCCCCCC(=O)OCC(COC(=O)C)OC(=O)CCCCCCCC=CCC=CCCCCC

> <PUBCHEM_OPENEYE_ISO_SMILES>
CCCCCCCCCCCCCCCC(=O)OCC(COC(=O)C)OC(=O)CCCCCCC/C=C\C/C=C\CCCCC

> <PUBCHEM_CACTVS_TPSA>
78.9

> <PUBCHEM_MONOISOTOPIC_WEIGHT>
634.51723995

> <PUBCHEM_TOTAL_CHARGE>
0

> <PUBCHEM_HEAVY_ATOM_COUNT>
45

> <PUBCHEM_ATOM_DEF_STEREO_COUNT>
0

> <PUBCHEM_ATOM_UDEF_STEREO_COUNT>
1

> <PUBCHEM_BOND_DEF_STEREO_COUNT>
2

> <PUBCHEM_BOND_UDEF_STEREO_COUNT>
0

> <PUBCHEM_ISOTOPIC_ATOM_COUNT>
0

> <PUBCHEM_COMPONENT_COUNT>
1

> <PUBCHEM_CACTVS_TAUTO_COUNT>
-1

> <PUBCHEM_COORDINATE_TYPE>
1
5
255

> <PUBCHEM_BONDANNOTATIONS>
30  34  3

$$$$
118628567
  -OEChem-03012215082D

 66 70  0     1  0  0  0  0  0999 V2000
    2.0000    3.5951    0.0000 Cl   0  0  0  0  0  0  0  0  0  0  0  0
   11.8003   -4.7029    0.0000 S    0  0  0  0  0  0  0  0  0  0  0  0
    5.0301    1.0804    0.0000 S    0  0  0  0  0  0  0  0  0  0  0  0
    8.8813   -4.6945    0.0000 O    0  0  0  0  0  0  0  0  0  0  0  0
   10.8493   -4.3939    0.0000 O    0  0  0  0  0  0  0  0  0  0  0  0
   11.4913   -5.6539    0.0000 O    0  0  0  0  0  0  0  0  0  0  0  0
   12.1093   -3.7518    0.0000 O    0  0  0  0  0  0  0  0  0  0  0  0
    7.6124    0.3759    0.0000 O    0  0  0  0  0  0  0  0  0  0  0  0
    7.7935   -1.3466    0.0000 N    0  0  0  0  0  0  0  0  0  0  0  0
    6.3961    4.1193    0.0000 N    0  0  0  0  0  0  0  0  0  0  0  0
    6.3922   -2.3647    0.0000 N    0  0  0  0  0  0  0  0  0  0  0  0
   12.7514   -5.0119    0.0000 N    0  0  0  0  0  0  0  0  0  0  0  0
    4.8099   -1.6602    0.0000 N    0  0  0  0  0  0  0  0  0  0  0  0
    9.6903   -3.1067    0.0000 C    0  0  1  0  0  0  0  0  0  0  0  0
    8.3813   -2.1556    0.0000 C    0  0  2  0  0  0  0  0  0  0  0  0
    9.3813   -2.1556    0.0000 C    0  0  0  0  0  0  0  0  0  0  0  0
    8.8813   -3.6945    0.0000 C    0  0  2  0  0  0  0  0  0  0  0  0
    8.0722   -3.1067    0.0000 C    0  0  0  0  0  0  0  0  0  0  0  0
   10.6413   -3.4157    0.0000 C    0  0  0  0  0  0  0  0  0  0  0  0
    6.7990   -1.4512    0.0000 C    0  0  0  0  0  0  0  0  0  0  0  0
    5.5301    3.6193    0.0000 C    0  0  2  0  0  0  0  0  0  0  0  0
    6.2112   -0.6421    0.0000 C    0  0  0  0  0  0  0  0  0  0  0  0
    4.6641    4.1193    0.0000 C    0  0  0  0  0  0  0  0  0  0  0  0
    5.5301    2.6193    0.0000 C    0  0  0  0  0  0  0  0  0  0  0  0
    5.5301    5.6193    0.0000 C    0  0  0  0  0  0  0  0  0  0  0  0
    4.6641    5.1193    0.0000 C    0  0  0  0  0  0  0  0  0  0  0  0
    6.3961    5.1193    0.0000 C    0  0  0  0  0  0  0  0  0  0  0  0
    6.6179    0.2714    0.0000 C    0  0  0  0  0  0  0  0  0  0  0  0
    6.0301    1.0804    0.0000 C    0  0  0  0  0  0  0  0  0  0  0  0
    6.3391    2.0315    0.0000 C    0  0  0  0  0  0  0  0  0  0  0  0
    4.7211    2.0315    0.0000 C    0  0  0  0  0  0  0  0  0  0  0  0
    5.2166   -0.7467    0.0000 C    0  0  0  0  0  0  0  0  0  0  0  0
    3.7702    3.5846    0.0000 C    0  0  0  0  0  0  0  0  0  0  0  0
    3.7702    5.6539    0.0000 C    0  0  0  0  0  0  0  0  0  0  0  0
    5.3977   -2.4692    0.0000 C    0  0  0  0  0  0  0  0  0  0  0  0
    2.8641    4.0985    0.0000 C    0  0  0  0  0  0  0  0  0  0  0  0
    2.8641    5.1401    0.0000 C    0  0  0  0  0  0  0  0  0  0  0  0
    3.7700    2.3405    0.0000 C    0  0  0  0  0  0  0  0  0  0  0  0
    9.7873   -3.7191    0.0000 H    0  0  0  0  0  0  0  0  0  0  0  0
    7.7689   -2.2526    0.0000 H    0  0  0  0  0  0  0  0  0  0  0  0
    9.9877   -2.0267    0.0000 H    0  0  0  0  0  0  0  0  0  0  0  0
    9.3165   -1.5390    0.0000 H    0  0  0  0  0  0  0  0  0  0  0  0
    8.3288   -3.9760    0.0000 H    0  0  0  0  0  0  0  0  0  0  0  0
    7.5058   -2.8545    0.0000 H    0  0  0  0  0  0  0  0  0  0  0  0
    7.7622   -3.6436    0.0000 H    0  0  0  0  0  0  0  0  0  0  0  0
   11.2610   -3.3941    0.0000 H    0  0  0  0  0  0  0  0  0  0  0  0
   10.7276   -2.8018    0.0000 H    0  0  0  0  0  0  0  0  0  0  0  0
    8.0457   -0.7802    0.0000 H    0  0  0  0  0  0  0  0  0  0  0  0
    8.3443   -5.0045    0.0000 H    0  0  0  0  0  0  0  0  0  0  0  0
    6.2662    3.1943    0.0000 H    0  0  0  0  0  0  0  0  0  0  0  0
    5.9286    6.0942    0.0000 H    0  0  0  0  0  0  0  0  0  0  0  0
    5.1316    6.0942    0.0000 H    0  0  0  0  0  0  0  0  0  0  0  0
    7.0067    5.0116    0.0000 H    0  0  0  0  0  0  0  0  0  0  0  0
    6.6082    5.7019    0.0000 H    0  0  0  0  0  0  0  0  0  0  0  0
    6.9331    3.8093    0.0000 H    0  0  0  0  0  0  0  0  0  0  0  0
    6.9288    2.2231    0.0000 H    0  0  0  0  0  0  0  0  0  0  0  0
    4.8522   -0.2451    0.0000 H    0  0  0  0  0  0  0  0  0  0  0  0
    3.7773    2.9646    0.0000 H    0  0  0  0  0  0  0  0  0  0  0  0
    3.7773    6.2739    0.0000 H    0  0  0  0  0  0  0  0  0  0  0  0
    5.1455   -3.0356    0.0000 H    0  0  0  0  0  0  0  0  0  0  0  0
   12.8803   -5.6183    0.0000 H    0  0  0  0  0  0  0  0  0  0  0  0
   13.2121   -4.5970    0.0000 H    0  0  0  0  0  0  0  0  0  0  0  0
    2.3284    5.4521    0.0000 H    0  0  0  0  0  0  0  0  0  0  0  0
    3.9616    2.9302    0.0000 H    0  0  0  0  0  0  0  0  0  0  0  0
    3.1804    2.5321    0.0000 H    0  0  0  0  0  0  0  0  0  0  0  0
    3.5785    1.7508    0.0000 H    0  0  0  0  0  0  0  0  0  0  0  0
  1 36  1  0  0  0  0
  2  5  1  0  0  0  0
  2  6  2  0  0  0  0
  2  7  2  0  0  0  0
  2 12  1  0  0  0  0
  3 29  1  0  0  0  0
  3 31  1  0  0  0  0
 17  4  1  1  0  0  0
  4 49  1  0  0  0  0
  5 19  1  0  0  0  0
  8 28  2  0  0  0  0
 15  9  1  6  0  0  0
  9 20  1  0  0  0  0
  9 48  1  0  0  0  0
 10 21  1  0  0  0  0
 10 27  1  0  0  0  0
 10 55  1  0  0  0  0
 11 20  2  0  0  0  0
 11 35  1  0  0  0  0
 12 61  1  0  0  0  0
 12 62  1  0  0  0  0
 13 32  1  0  0  0  0
 13 35  2  0  0  0  0
 14 16  1  0  0  0  0
 14 17  1  0  0  0  0
 14 19  1  6  0  0  0
 14 39  1  0  0  0  0
 15 16  1  0  0  0  0
 15 18  1  0  0  0  0
 15 40  1  0  0  0  0
 16 41  1  0  0  0  0
 16 42  1  0  0  0  0
 17 18  1  0  0  0  0
 17 43  1  0  0  0  0
 18 44  1  0  0  0  0
 18 45  1  0  0  0  0
 19 46  1  0  0  0  0
 19 47  1  0  0  0  0
 20 22  1  0  0  0  0
 21 23  1  0  0  0  0
 21 24  1  0  0  0  0
 21 50  1  6  0  0  0
 22 28  1  0  0  0  0
 22 32  2  0  0  0  0
 23 26  2  0  0  0  0
 23 33  1  0  0  0  0
 24 30  1  0  0  0  0
 24 31  2  0  0  0  0
 25 26  1  0  0  0  0
 25 27  1  0  0  0  0
 25 51  1  0  0  0  0
 25 52  1  0  0  0  0
 26 34  1  0  0  0  0
 27 53  1  0  0  0  0
 27 54  1  0  0  0  0
 28 29  1  0  0  0  0
 29 30  2  0  0  0  0
 30 56  1  0  0  0  0
 31 38  1  0  0  0  0
 32 57  1  0  0  0  0
 33 36  2  0  0  0  0
 33 58  1  0  0  0  0
 34 37  2  0  0  0  0
 34 59  1  0  0  0  0
 35 60  1  0  0  0  0
 36 37  1  0  0  0  0
 37 63  1  0  0  0  0
 38 64  1  0  0  0  0
 38 65  1  0  0  0  0
 38 66  1  0  0  0  0
M  END
> <PUBCHEM_COMPOUND_CID>
118628567

> <PUBCHEM_COMPOUND_CANONICALIZED>
1

> <PUBCHEM_CACTVS_COMPLEXITY>
942

> <PUBCHEM_CACTVS_HBOND_ACCEPTOR>
11

> <PUBCHEM_CACTVS_HBOND_DONOR>
4

> <PUBCHEM_CACTVS_ROTATABLE_BOND>
8

> <PUBCHEM_CACTVS_SUBSKEYS>
AAADceB7uABkAAAAAAAAAAAAAAAAAaIAAAA8WIAAAAAAAACx8AAAHgYQSAAADT7h2iY/sZbIEgisArJ3ZDCDgKk1DbBJ2LkoRtiIOLrh31GEZYhvkALoyee42cOehAAAIAAQAAAIAABAACAAACEABAAAAA==

> <PUBCHEM_IUPAC_OPENEYE_NAME>
[(1R,2S,4R)-4-[[5-[4-[(1R)-7-chloro-1,2,3,4-tetrahydroisoquinolin-1-yl]-5-methyl-thiophene-2-carbonyl]pyrimidin-4-yl]amino]-2-hydroxy-cyclopentyl]methyl sulfamate

> <PUBCHEM_IUPAC_CAS_NAME>
sulfamic acid [(1R,2S,4R)-4-[[5-[[4-[(1R)-7-chloro-1,2,3,4-tetrahydroisoquinolin-1-yl]-5-methyl-2-thiophenyl]-oxomethyl]-4-pyrimidinyl]amino]-2-hydroxycyclopentyl]methyl ester

> <PUBCHEM_IUPAC_NAME_MARKUP>
[(1<I>R</I>,2<I>S</I>,4<I>R</I>)-4-[[5-[4-[(1<I>R</I>)-7-chloro-1,2,3,4-tetrahydroisoquinolin-1-yl]-5-methylthiophene-2-carbonyl]pyrimidin-4-yl]amino]-2-hydroxycyclopentyl]methyl sulfamate

> <PUBCHEM_IUPAC_NAME>
[(1R,2S,4R)-4-[[5-[4-[(1R)-7-chloro-1,2,3,4-tetrahydroisoquinolin-1-yl]-5-methylthiophene-2-carbonyl]pyrimidin-4-yl]amino]-2-hydroxycyclopentyl]methyl sulfamate

> <PUBCHEM_IUPAC_SYSTEMATIC_NAME>
[(1R,2S,4R)-4-[[5-[4-[(1R)-7-chloranyl-1,2,3,4-tetrahydroisoquinolin-1-yl]-5-methyl-thiophen-2-yl]carbonylpyrimidin-4-yl]amino]-2-oxidanyl-cyclopentyl]methyl sulfamate

> <PUBCHEM_IUPAC_TRADITIONAL_NAME>
sulfamic acid [(1R,2S,4R)-4-[[5-[4-[(1R)-7-chloro-1,2,3,4-tetrahydroisoquinolin-1-yl]-5-methyl-thiophene-2-carbonyl]pyrimidin-4-yl]amino]-2-hydroxy-cyclopentyl]methyl ester

> <PUBCHEM_IUPAC_INCHI>
InChI=1S/C25H28ClN5O5S2/c1-13-18(23-19-7-16(26)3-2-14(19)4-5-29-23)9-22(37-13)24(33)20-10-28-12-30-25(20)31-17-6-15(21(32)8-17)11-36-38(27,34)35/h2-3,7,9-10,12,15,17,21,23,29,32H,4-6,8,11H2,1H3,(H2,27,34,35)(H,28,30,31)/t15-,17-,21+,23+/m1/s1

> <PUBCHEM_IUPAC_INCHIKEY>
LXRZVMYMQHNYJB-UNXOBOICSA-N

> <PUBCHEM_XLOGP3_AA>
3.5

> <PUBCHEM_EXACT_MASS>
577.1220391

> <PUBCHEM_MOLECULAR_FORMULA>
C25H28ClN5O5S2

> <PUBCHEM_MOLECULAR_WEIGHT>
578.1

> <PUBCHEM_OPENEYE_CAN_SMILES>
CC1=C(C=C(S1)C(=O)C2=CN=CN=C2NC3CC(C(C3)O)COS(=O)(=O)N)C4C5=C(CCN4)C=CC(=C5)Cl

> <PUBCHEM_OPENEYE_ISO_SMILES>
CC1=C(C=C(S1)C(=O)C2=CN=CN=C2N[C@@H]3C[C@@H]([C@H](C3)O)COS(=O)(=O)N)[C@H]4C5=C(CCN4)C=CC(=C5)Cl

> <PUBCHEM_CACTVS_TPSA>
193

> <PUBCHEM_MONOISOTOPIC_WEIGHT>
577.1220391

> <PUBCHEM_TOTAL_CHARGE>
0

> <PUBCHEM_HEAVY_ATOM_COUNT>
38

> <PUBCHEM_ATOM_DEF_STEREO_COUNT>
4

> <PUBCHEM_ATOM_UDEF_STEREO_COUNT>
0

> <PUBCHEM_BOND_DEF_STEREO_COUNT>
0

> <PUBCHEM_BOND_UDEF_STEREO_COUNT>
0

> <PUBCHEM_ISOTOPIC_ATOM_COUNT>
0

> <PUBCHEM_COMPONENT_COUNT>
1

> <PUBCHEM_CACTVS_TAUTO_COUNT>
-1

> <PUBCHEM_COORDINATE_TYPE>
1
5
255

> <PUBCHEM_BONDANNOTATIONS>
11  20  8
11  35  8
13  32  8
13  35  8
14  19  6
20  22  8
21  50  6
22  32  8
23  26  8
23  33  8
24  30  8
24  31  8
26  34  8
29  30  8
3  29  8
3  31  8
33  36  8
34  37  8
36  37  8
17  4  5
15  9  6

$$$$
9595248
  -OEChem-03012215082D

 77 82  0     0  0  0  0  0  0999 V2000
    8.7746    1.0702    0.0000 Sn   0  0  0  0  0  0  0  0  0  0  0  0
    9.4650    1.7936    0.0000 Cl   0  0  0  0  0  0  0  0  0  0  0  0
    9.3672    0.2647    0.0000 Cl   0  0  0  0  0  0  0  0  0  0  0  0
    7.9710   -5.1346    0.0000 O    0  0  0  0  0  0  0  0  0  0  0  0
    2.4934    0.1838    0.0000 O    0  0  0  0  0  0  0  0  0  0  0  0
    6.5708   -4.1152    0.0000 O    0  0  0  0  0  0  0  0  0  0  0  0
    3.5421   -1.1947    0.0000 O    0  0  0  0  0  0  0  0  0  0  0  0
    8.8113   -0.2022    0.0000 N    0  0  0  0  0  0  0  0  0  0  0  0
    7.3856    1.0964    0.0000 N    0  0  0  0  0  0  0  0  0  0  0  0
   10.2353    1.0964    0.0000 N    0  0  0  0  0  0  0  0  0  0  0  0
    8.7795    2.3951    0.0000 N    0  0  0  0  0  0  0  0  0  0  0  0
    8.0508   -0.8040    0.0000 C    0  0  0  0  0  0  0  0  0  0  0  0
    6.8474    0.3677    0.0000 C    0  0  0  0  0  0  0  0  0  0  0  0
    9.5717   -0.7723    0.0000 C    0  0  0  0  0  0  0  0  0  0  0  0
    6.8474    1.8251    0.0000 C    0  0  0  0  0  0  0  0  0  0  0  0
   10.8053    0.3994    0.0000 C    0  0  0  0  0  0  0  0  0  0  0  0
    9.5717    3.0286    0.0000 C    0  0  0  0  0  0  0  0  0  0  0  0
    8.0190    2.9968    0.0000 C    0  0  0  0  0  0  0  0  0  0  0  0
   10.7736    1.8569    0.0000 C    0  0  0  0  0  0  0  0  0  0  0  0
    7.1331   -0.5182    0.0000 C    0  0  0  0  0  0  0  0  0  0  0  0
   10.5211   -0.5182    0.0000 C    0  0  0  0  0  0  0  0  0  0  0  0
    7.1014    2.7428    0.0000 C    0  0  0  0  0  0  0  0  0  0  0  0
   10.4894    2.7428    0.0000 C    0  0  0  0  0  0  0  0  0  0  0  0
    8.3366   -1.6899    0.0000 C    0  0  0  0  0  0  0  0  0  0  0  0
    5.9298    0.6217    0.0000 C    0  0  0  0  0  0  0  0  0  0  0  0
    9.2860   -1.6899    0.0000 C    0  0  0  0  0  0  0  0  0  0  0  0
    5.9298    1.5710    0.0000 C    0  0  0  0  0  0  0  0  0  0  0  0
   11.6927    0.6535    0.0000 C    0  0  0  0  0  0  0  0  0  0  0  0
    9.2542    3.9144    0.0000 C    0  0  0  0  0  0  0  0  0  0  0  0
    8.3048    3.9144    0.0000 C    0  0  0  0  0  0  0  0  0  0  0  0
   11.6927    1.6028    0.0000 C    0  0  0  0  0  0  0  0  0  0  0  0
    7.7480   -2.4983    0.0000 C    0  0  0  0  0  0  0  0  0  0  0  0
    5.1339    0.0163    0.0000 C    0  0  0  0  0  0  0  0  0  0  0  0
    9.7860   -2.5559    0.0000 C    0  0  0  0  0  0  0  0  0  0  0  0
    5.1339    2.1765    0.0000 C    0  0  0  0  0  0  0  0  0  0  0  0
   12.4912    0.0515    0.0000 C    0  0  0  0  0  0  0  0  0  0  0  0
    9.8298    4.7322    0.0000 C    0  0  0  0  0  0  0  0  0  0  0  0
    7.7121    4.7199    0.0000 C    0  0  0  0  0  0  0  0  0  0  0  0
   12.4885    2.2084    0.0000 C    0  0  0  0  0  0  0  0  0  0  0  0
    8.1538   -3.4123    0.0000 C    0  0  0  0  0  0  0  0  0  0  0  0
    4.2116    0.4028    0.0000 C    0  0  0  0  0  0  0  0  0  0  0  0
    8.1133    5.6359    0.0000 C    0  0  0  0  0  0  0  0  0  0  0  0
   13.4109    1.8221    0.0000 C    0  0  0  0  0  0  0  0  0  0  0  0
    7.5652   -4.2207    0.0000 C    0  0  0  0  0  0  0  0  0  0  0  0
    3.4157   -0.2027    0.0000 C    0  0  0  0  0  0  0  0  0  0  0  0
    6.6969   -0.9588    0.0000 H    0  0  0  0  0  0  0  0  0  0  0  0
   10.9509   -0.9650    0.0000 H    0  0  0  0  0  0  0  0  0  0  0  0
    6.6630    3.1812    0.0000 H    0  0  0  0  0  0  0  0  0  0  0  0
   10.9259    3.1830    0.0000 H    0  0  0  0  0  0  0  0  0  0  0  0
    7.3177   -2.0519    0.0000 H    0  0  0  0  0  0  0  0  0  0  0  0
    7.2336   -2.8445    0.0000 H    0  0  0  0  0  0  0  0  0  0  0  0
    4.7986   -0.5053    0.0000 H    0  0  0  0  0  0  0  0  0  0  0  0
    5.5892   -0.4045    0.0000 H    0  0  0  0  0  0  0  0  0  0  0  0
    9.2491   -2.8659    0.0000 H    0  0  0  0  0  0  0  0  0  0  0  0
   10.0960   -3.0928    0.0000 H    0  0  0  0  0  0  0  0  0  0  0  0
   10.3229   -2.2459    0.0000 H    0  0  0  0  0  0  0  0  0  0  0  0
    5.5093    2.6700    0.0000 H    0  0  0  0  0  0  0  0  0  0  0  0
    4.6405    2.5519    0.0000 H    0  0  0  0  0  0  0  0  0  0  0  0
    4.7585    1.6831    0.0000 H    0  0  0  0  0  0  0  0  0  0  0  0
   12.1180   -0.4436    0.0000 H    0  0  0  0  0  0  0  0  0  0  0  0
   12.9863   -0.3217    0.0000 H    0  0  0  0  0  0  0  0  0  0  0  0
   12.8645    0.5466    0.0000 H    0  0  0  0  0  0  0  0  0  0  0  0
   10.3368    4.3753    0.0000 H    0  0  0  0  0  0  0  0  0  0  0  0
   10.1867    5.2392    0.0000 H    0  0  0  0  0  0  0  0  0  0  0  0
    9.3229    5.0890    0.0000 H    0  0  0  0  0  0  0  0  0  0  0  0
    7.0959    4.6513    0.0000 H    0  0  0  0  0  0  0  0  0  0  0  0
   12.4100    2.8235    0.0000 H    0  0  0  0  0  0  0  0  0  0  0  0
    8.5840   -3.8587    0.0000 H    0  0  0  0  0  0  0  0  0  0  0  0
    8.6681   -3.0661    0.0000 H    0  0  0  0  0  0  0  0  0  0  0  0
    4.5469    0.9243    0.0000 H    0  0  0  0  0  0  0  0  0  0  0  0
    3.7562    0.8235    0.0000 H    0  0  0  0  0  0  0  0  0  0  0  0
    8.7294    5.7044    0.0000 H    0  0  0  0  0  0  0  0  0  0  0  0
    7.7458    6.1352    0.0000 H    0  0  0  0  0  0  0  0  0  0  0  0
   13.4894    1.2071    0.0000 H    0  0  0  0  0  0  0  0  0  0  0  0
   13.9042    2.1976    0.0000 H    0  0  0  0  0  0  0  0  0  0  0  0
    7.6060   -5.6359    0.0000 H    0  0  0  0  0  0  0  0  0  0  0  0
    2.0000   -0.1916    0.0000 H    0  0  0  0  0  0  0  0  0  0  0  0
  1  2  1  0  0  0  0
  1  3  1  0  0  0  0
  1  8  1  0  0  0  0
  1 11  1  0  0  0  0
  4 44  1  0  0  0  0
  4 76  1  0  0  0  0
  5 45  1  0  0  0  0
  5 77  1  0  0  0  0
  6 44  2  0  0  0  0
  7 45  2  0  0  0  0
  8 12  1  0  0  0  0
  8 14  1  0  0  0  0
  9 13  2  0  0  0  0
  9 15  1  0  0  0  0
 10 16  2  0  0  0  0
 10 19  1  0  0  0  0
 11 17  1  0  0  0  0
 11 18  1  0  0  0  0
 12 20  2  0  0  0  0
 12 24  1  0  0  0  0
 13 20  1  0  0  0  0
 13 25  1  0  0  0  0
 14 21  2  0  0  0  0
 14 26  1  0  0  0  0
 15 22  2  0  0  0  0
 15 27  1  0  0  0  0
 16 21  1  0  0  0  0
 16 28  1  0  0  0  0
 17 23  1  0  0  0  0
 17 29  2  0  0  0  0
 18 22  1  0  0  0  0
 18 30  2  0  0  0  0
 19 23  2  0  0  0  0
 19 31  1  0  0  0  0
 20 46  1  0  0  0  0
 21 47  1  0  0  0  0
 22 48  1  0  0  0  0
 23 49  1  0  0  0  0
 24 26  2  0  0  0  0
 24 32  1  0  0  0  0
 25 27  2  0  0  0  0
 25 33  1  0  0  0  0
 26 34  1  0  0  0  0
 27 35  1  0  0  0  0
 28 31  2  0  0  0  0
 28 36  1  0  0  0  0
 29 30  1  0  0  0  0
 29 37  1  0  0  0  0
 30 38  1  0  0  0  0
 31 39  1  0  0  0  0
 32 40  1  0  0  0  0
 32 50  1  0  0  0  0
 32 51  1  0  0  0  0
 33 41  1  0  0  0  0
 33 52  1  0  0  0  0
 33 53  1  0  0  0  0
 34 54  1  0  0  0  0
 34 55  1  0  0  0  0
 34 56  1  0  0  0  0
 35 57  1  0  0  0  0
 35 58  1  0  0  0  0
 35 59  1  0  0  0  0
 36 60  1  0  0  0  0
 36 61  1  0  0  0  0
 36 62  1  0  0  0  0
 37 63  1  0  0  0  0
 37 64  1  0  0  0  0
 37 65  1  0  0  0  0
 38 42  2  0  0  0  0
 38 66  1  0  0  0  0
 39 43  2  0  0  0  0
 39 67  1  0  0  0  0
 40 44  1  0  0  0  0
 40 68  1  0  0  0  0
 40 69  1  0  0  0  0
 41 45  1  0  0  0  0
 41 70  1  0  0  0  0
 41 71  1  0  0  0  0
 42 72  1  0  0  0  0
 42 73  1  0  0  0  0
 43 74  1  0  0  0  0
 43 75  1  0  0  0  0
M  END
> <PUBCHEM_COMPOUND_CID>
9595248

> <PUBCHEM_COMPOUND_CANONICALIZED>
1

> <PUBCHEM_CACTVS_COMPLEXITY>
1760

> <PUBCHEM_CACTVS_HBOND_ACCEPTOR>
7

> <PUBCHEM_CACTVS_HBOND_DONOR>
2

> <PUBCHEM_CACTVS_ROTATABLE_BOND>
8

> <PUBCHEM_CACTVS_SUBSKEYS>
AAADcfB/uAAGAAAAAACAAAAAAAAAAWIECAAgQIEAAAAAAECBgAAAHgAACAAADAiBngACiJIIEgCoAyTyTACCgCAhAiAImCEwRJgIIHLAkJGEQAhkgADIyAeYWQIOgAAAAAAAAAAAAAAAAAAAAAAAAAAAAA==

> <PUBCHEM_IUPAC_OPENEYE_NAME>
3-[20-(2-carboxyethyl)-22,22-dichloro-5,10,15,19-tetramethyl-9,14-divinyl-21,23,24,25-tetraza-22-stannahexacyclo[9.9.3.13,6.113,16.08,23.018,21]pentacosa-1,3(25),4,6,8,10,12,14,16(24),17,19-undecaen-4-yl]propanoic acid

> <PUBCHEM_IUPAC_CAS_NAME>
3-[20-(2-carboxyethyl)-22,22-dichloro-9,14-bis(ethenyl)-5,10,15,19-tetramethyl-21,23,24,25-tetraza-22-stannahexacyclo[9.9.3.13,6.113,16.08,23.018,21]pentacosa-1,3(25),4,6,8,10,12,14,16(24),17,19-undecaen-4-yl]propanoic acid

> <PUBCHEM_IUPAC_NAME_MARKUP>
3-[20-(2-carboxyethyl)-22,22-dichloro-9,14-bis(ethenyl)-5,10,15,19-tetramethyl-21,23,24,25-tetraza-22-stannahexacyclo[9.9.3.1<SUP>3,6</SUP>.1<SUP>13,16</SUP>.0<SUP>8,23</SUP>.0<SUP>18,21</SUP>]pentacosa-1,3(25),4,6,8,10,12,14,16(24),17,19-undecaen-4-yl]propanoic acid

> <PUBCHEM_IUPAC_NAME>
3-[20-(2-carboxyethyl)-22,22-dichloro-9,14-bis(ethenyl)-5,10,15,19-tetramethyl-21,23,24,25-tetraza-22-stannahexacyclo[9.9.3.13,6.113,16.08,23.018,21]pentacosa-1,3(25),4,6,8,10,12,14,16(24),17,19-undecaen-4-yl]propanoic acid

> <PUBCHEM_IUPAC_SYSTEMATIC_NAME>
3-[22,22-bis(chloranyl)-9,14-bis(ethenyl)-20-(3-hydroxy-3-oxopropyl)-5,10,15,19-tetramethyl-21,23,24,25-tetraza-22-stannahexacyclo[9.9.3.13,6.113,16.08,23.018,21]pentacosa-1,3(25),4,6,8,10,12,14,16(24),17,19-undecaen-4-yl]propanoic acid

> <PUBCHEM_IUPAC_TRADITIONAL_NAME>
3-[20-(2-carboxyethyl)-22,22-dichloro-5,10,15,19-tetramethyl-9,14-divinyl-21,23,24,25-tetraza-22-stannahexacyclo[9.9.3.13,6.113,16.08,23.018,21]pentacosa-1,3(25),4,6,8,10,12,14,16(24),17,19-undecaen-4-yl]propionic acid

> <PUBCHEM_IUPAC_INCHI>
InChI=1S/C34H34N4O4.2ClH.Sn/c1-7-21-17(3)25-13-26-19(5)23(9-11-33(39)40)31(37-26)16-32-24(10-12-34(41)42)20(6)28(38-32)15-30-22(8-2)18(4)27(36-30)14-29(21)35-25;;;/h7-8,13-16H,1-2,9-12H2,3-6H3,(H4,35,36,37,38,39,40,41,42);2*1H;/q;;;+4/p-4

> <PUBCHEM_IUPAC_INCHIKEY>
HDGCWLZQBOZSGG-UHFFFAOYSA-J

> <PUBCHEM_EXACT_MASS>
750.082263

> <PUBCHEM_MOLECULAR_FORMULA>
C34H32Cl2N4O4Sn

> <PUBCHEM_MOLECULAR_WEIGHT>
750.3

> <PUBCHEM_OPENEYE_CAN_SMILES>
CC1=C(C2=NC1=CC3=C(C(=C4N3[Sn](N5C(=CC6=NC(=C4)C(=C6C)C=C)C(=C(C5=C2)CCC(=O)O)C)(Cl)Cl)C)C=C)CCC(=O)O

> <PUBCHEM_OPENEYE_ISO_SMILES>
CC1=C(C2=NC1=CC3=C(C(=C4N3[Sn](N5C(=CC6=NC(=C4)C(=C6C)C=C)C(=C(C5=C2)CCC(=O)O)C)(Cl)Cl)C)C=C)CCC(=O)O

> <PUBCHEM_CACTVS_TPSA>
108

> <PUBCHEM_MONOISOTOPIC_WEIGHT>
750.082263

> <PUBCHEM_TOTAL_CHARGE>
0

> <PUBCHEM_HEAVY_ATOM_COUNT>
45

> <PUBCHEM_ATOM_DEF_STEREO_COUNT>
0

> <PUBCHEM_ATOM_UDEF_STEREO_COUNT>
0

> <PUBCHEM_BOND_DEF_STEREO_COUNT>
0

> <PUBCHEM_BOND_UDEF_STEREO_COUNT>
0

> <PUBCHEM_ISOTOPIC_ATOM_COUNT>
0

> <PUBCHEM_COMPONENT_COUNT>
1

> <PUBCHEM_CACTVS_TAUTO_COUNT>
-1

> <PUBCHEM_NONSTANDARDBOND>
1  10  6
1  9  6

> <PUBCHEM_COORDINATE_TYPE>
1
5
255

> <PUBCHEM_BONDANNOTATIONS>
10  16  8
10  19  8
11  17  8
11  18  8
12  20  8
12  24  8
13  20  8
14  21  8
14  26  8
15  22  8
16  21  8
17  23  8
17  29  8
18  22  8
18  30  8
19  23  8
24  26  8
29  30  8
8  12  8
8  14  8
9  13  8
9  15  8

$$$$
10281
  -OEChem-03012215082D

 24 24  0     0  0  0  0  0  0999 V2000
    2.0000    0.7500    0.0000 O   0  0  0  0  0  0  0  0  0  0  0  0
    5.4641   -1.2500    0.0000 O   0  0  0  0  0  0  0  0  0  0  0  0
    3.7320    1.7500    0.0000 C   0  0  0  0  0  0  0  0  0  0  0  0
    3.7320    0.7500    0.0000 C   0  0  0  0  0  0  0  0  0  0  0  0
    4.5981    2.2500    0.0000 C   0  0  0  0  0  0  0  0  0  0  0  0
    2.8660    2.2500    0.0000 C   0  0  0  0  0  0  0  0  0  0  0  0
    2.8660    0.2500    0.0000 C   0  0  0  0  0  0  0  0  0  0  0  0
    4.5981    0.2500    0.0000 C   0  0  0  0  0  0  0  0  0  0  0  0
    3.7320   -1.2500    0.0000 C   0  0  0  0  0  0  0  0  0  0  0  0
    4.5981   -0.7500    0.0000 C   0  0  0  0  0  0  0  0  0  0  0  0
    2.8660   -0.7500    0.0000 C   0  0  0  0  0  0  0  0  0  0  0  0
    3.7320   -2.2500    0.0000 C   0  0  0  0  0  0  0  0  0  0  0  0
    3.7320    2.3700    0.0000 H   0  0  0  0  0  0  0  0  0  0  0  0
    4.9081    1.7131    0.0000 H   0  0  0  0  0  0  0  0  0  0  0  0
    5.1350    2.5600    0.0000 H   0  0  0  0  0  0  0  0  0  0  0  0
    4.2881    2.7869    0.0000 H   0  0  0  0  0  0  0  0  0  0  0  0
    3.1760    2.7869    0.0000 H   0  0  0  0  0  0  0  0  0  0  0  0
    2.3291    2.5600    0.0000 H   0  0  0  0  0  0  0  0  0  0  0  0
    2.5560    1.7131    0.0000 H   0  0  0  0  0  0  0  0  0  0  0  0
    5.1350    0.5600    0.0000 H   0  0  0  0  0  0  0  0  0  0  0  0
    2.3291   -1.0600    0.0000 H   0  0  0  0  0  0  0  0  0  0  0  0
    3.1120   -2.2500    0.0000 H   0  0  0  0  0  0  0  0  0  0  0  0
    3.7320   -2.8700    0.0000 H   0  0  0  0  0  0  0  0  0  0  0  0
    4.3520   -2.2500    0.0000 H   0  0  0  0  0  0  0  0  0  0  0  0
  1  7  2  0  0  0  0
  2 10  2  0  0  0  0
  3  4  1  0  0  0  0
  3  5  1  0  0  0  0
  3  6  1  0  0  0  0
  3 13  1  0  0  0  0
  4  7  1  0  0  0  0
  4  8  2  0  0  0  0
  5 14  1  0  0  0  0
  5 15  1  0  0  0  0
  5 16  1  0  0  0  0
  6 17  1  0  0  0  0
  6 18  1  0  0  0  0
  6 19  1  0  0  0  0
  7 11  1  0  0  0  0
  8 10  1  0  0  0  0
  8 20  1  0  0  0  0
  9 10  1  0  0  0  0
  9 11  2  0  0  0  0
  9 12  1  0  0  0  0
 11 21  1  0  0  0  0
 12 22  1  0  0  0  0
 12 23  1  0  0  0  0
 12 24  1  0  0  0  0
M  END
> <PUBCHEM_COMPOUND_CID>
10281

> <PUBCHEM_COMPOUND_CANONICALIZED>
1

> <PUBCHEM_CACTVS_COMPLEXITY>
293

> <PUBCHEM_CACTVS_HBOND_ACCEPTOR>
2

> <PUBCHEM_CACTVS_HBOND_DONOR>
0

> <PUBCHEM_CACTVS_ROTATABLE_BOND>
1

> <PUBCHEM_CACTVS_SUBSKEYS>
AAADccBwMAAAAAAAAAAAAAAAAAAAAAAAAAAgAAAAAAAAAAAAAAAAGgAAAAAADQSAgAACAAAAAACIAqBSAAAAAAAgAAAACAEAAEgAABIAAQAAAAAAgAAIAYIAAAAMAAAAAAAAAAAAAAAAAAAAAAAAAAAAAA==

> <PUBCHEM_IUPAC_OPENEYE_NAME>
2-isopropyl-5-methyl-1,4-benzoquinone

> <PUBCHEM_IUPAC_CAS_NAME>
2-methyl-5-propan-2-ylcyclohexa-2,5-diene-1,4-dione

> <PUBCHEM_IUPAC_NAME_MARKUP>
2-methyl-5-propan-2-ylcyclohexa-2,5-diene-1,4-dione

> <PUBCHEM_IUPAC_NAME>
2-methyl-5-propan-2-ylcyclohexa-2,5-diene-1,4-dione

> <PUBCHEM_IUPAC_SYSTEMATIC_NAME>
2-methyl-5-propan-2-yl-cyclohexa-2,5-diene-1,4-dione

> <PUBCHEM_IUPAC_TRADITIONAL_NAME>
2-isopropyl-5-methyl-p-benzoquinone

> <PUBCHEM_IUPAC_INCHI>
InChI=1S/C10H12O2/c1-6(2)8-5-9(11)7(3)4-10(8)12/h4-6H,1-3H3

> <PUBCHEM_IUPAC_INCHIKEY>
KEQHJBNSCLWCAE-UHFFFAOYSA-N

> <PUBCHEM_XLOGP3>
2

> <PUBCHEM_EXACT_MASS>
164.083729621

> <PUBCHEM_MOLECULAR_FORMULA>
C10H12O2

> <PUBCHEM_MOLECULAR_WEIGHT>
164.20

> <PUBCHEM_OPENEYE_CAN_SMILES>
CC1=CC(=O)C(=CC1=O)C(C)C

> <PUBCHEM_OPENEYE_ISO_SMILES>
CC1=CC(=O)C(=CC1=O)C(C)C

> <PUBCHEM_CACTVS_TPSA>
34.1

> <PUBCHEM_MONOISOTOPIC_WEIGHT>
164.083729621

> <PUBCHEM_TOTAL_CHARGE>
0

> <PUBCHEM_HEAVY_ATOM_COUNT>
12

> <PUBCHEM_ATOM_DEF_STEREO_COUNT>
0

> <PUBCHEM_ATOM_UDEF_STEREO_COUNT>
0

> <PUBCHEM_BOND_DEF_STEREO_COUNT>
0

> <PUBCHEM_BOND_UDEF_STEREO_COUNT>
0

> <PUBCHEM_ISOTOPIC_ATOM_COUNT>
0

> <PUBCHEM_COMPONENT_COUNT>
1

> <PUBCHEM_CACTVS_TAUTO_COUNT>
-1

> <PUBCHEM_COORDINATE_TYPE>
1
5
255

$$$$
5283454
  -OEChem-03012215082D

 62 61  0     0  0  0  0  0  0999 V2000
    6.0010   -3.7500    0.0000 O   0  0  0  0  0  0  0  0  0  0  0  0
    2.5369   -2.7500    0.0000 O   0  0  0  0  0  0  0  0  0  0  0  0
    5.1350   -2.2500    0.0000 N   0  0  0  0  0  0  0  0  0  0  0  0
    9.4651   -2.7500    0.0000 C   0  0  0  0  0  0  0  0  0  0  0  0
   10.3312   -2.2500    0.0000 C   0  0  0  0  0  0  0  0  0  0  0  0
   15.5273    0.7500    0.0000 C   0  0  0  0  0  0  0  0  0  0  0  0
   14.6613    0.2500    0.0000 C   0  0  0  0  0  0  0  0  0  0  0  0
    8.5991   -2.2500    0.0000 C   0  0  0  0  0  0  0  0  0  0  0  0
   15.5273    1.7500    0.0000 C   0  0  0  0  0  0  0  0  0  0  0  0
   11.1972   -2.7500    0.0000 C   0  0  0  0  0  0  0  0  0  0  0  0
   14.6613   -0.7500    0.0000 C   0  0  0  0  0  0  0  0  0  0  0  0
    7.7331   -2.7500    0.0000 C   0  0  0  0  0  0  0  0  0  0  0  0
   16.3933    2.2500    0.0000 C   0  0  0  0  0  0  0  0  0  0  0  0
   12.0632   -2.2500    0.0000 C   0  0  0  0  0  0  0  0  0  0  0  0
   13.7953   -1.2500    0.0000 C   0  0  0  0  0  0  0  0  0  0  0  0
    6.8671   -2.2500    0.0000 C   0  0  0  0  0  0  0  0  0  0  0  0
   16.3933    3.2500    0.0000 C   0  0  0  0  0  0  0  0  0  0  0  0
   12.9292   -2.7500    0.0000 C   0  0  0  0  0  0  0  0  0  0  0  0
   13.7953   -2.2500    0.0000 C   0  0  0  0  0  0  0  0  0  0  0  0
   17.2594    3.7500    0.0000 C   0  0  0  0  0  0  0  0  0  0  0  0
    6.0010   -2.7500    0.0000 C   0  0  0  0  0  0  0  0  0  0  0  0
    4.2690   -2.7500    0.0000 C   0  0  0  0  0  0  0  0  0  0  0  0
    3.4030   -2.2500    0.0000 C   0  0  0  0  0  0  0  0  0  0  0  0
    9.0666   -3.2250    0.0000 H   0  0  0  0  0  0  0  0  0  0  0  0
    9.8637   -3.2250    0.0000 H   0  0  0  0  0  0  0  0  0  0  0  0
   10.7297   -1.7750    0.0000 H   0  0  0  0  0  0  0  0  0  0  0  0
    9.9326   -1.7750    0.0000 H   0  0  0  0  0  0  0  0  0  0  0  0
   15.7394    0.1674    0.0000 H   0  0  0  0  0  0  0  0  0  0  0  0
   16.1379    0.8577    0.0000 H   0  0  0  0  0  0  0  0  0  0  0  0
   14.4492    0.8326    0.0000 H   0  0  0  0  0  0  0  0  0  0  0  0
   14.0507    0.1423    0.0000 H   0  0  0  0  0  0  0  0  0  0  0  0
    8.9976   -1.7750    0.0000 H   0  0  0  0  0  0  0  0  0  0  0  0
    8.2006   -1.7750    0.0000 H   0  0  0  0  0  0  0  0  0  0  0  0
   15.3153    2.3326    0.0000 H   0  0  0  0  0  0  0  0  0  0  0  0
   14.9167    1.6423    0.0000 H   0  0  0  0  0  0  0  0  0  0  0  0
   10.7987   -3.2250    0.0000 H   0  0  0  0  0  0  0  0  0  0  0  0
   11.5957   -3.2250    0.0000 H   0  0  0  0  0  0  0  0  0  0  0  0
   14.8733   -1.3326    0.0000 H   0  0  0  0  0  0  0  0  0  0  0  0
   15.2719   -0.6423    0.0000 H   0  0  0  0  0  0  0  0  0  0  0  0
    7.3346   -3.2250    0.0000 H   0  0  0  0  0  0  0  0  0  0  0  0
    8.1316   -3.2250    0.0000 H   0  0  0  0  0  0  0  0  0  0  0  0
   16.6054    1.6674    0.0000 H   0  0  0  0  0  0  0  0  0  0  0  0
   17.0039    2.3577    0.0000 H   0  0  0  0  0  0  0  0  0  0  0  0
   12.4617   -1.7750    0.0000 H   0  0  0  0  0  0  0  0  0  0  0  0
   11.6647   -1.7750    0.0000 H   0  0  0  0  0  0  0  0  0  0  0  0
   13.5832   -0.6674    0.0000 H   0  0  0  0  0  0  0  0  0  0  0  0
   13.1847   -1.3577    0.0000 H   0  0  0  0  0  0  0  0  0  0  0  0
    7.2656   -1.7750    0.0000 H   0  0  0  0  0  0  0  0  0  0  0  0
    6.4685   -1.7750    0.0000 H   0  0  0  0  0  0  0  0  0  0  0  0
   16.1813    3.8326    0.0000 H   0  0  0  0  0  0  0  0  0  0  0  0
   15.7828    3.1423    0.0000 H   0  0  0  0  0  0  0  0  0  0  0  0
   12.9292   -3.3700    0.0000 H   0  0  0  0  0  0  0  0  0  0  0  0
   14.3322   -2.5600    0.0000 H   0  0  0  0  0  0  0  0  0  0  0  0
   17.5694    3.2131    0.0000 H   0  0  0  0  0  0  0  0  0  0  0  0
   17.7963    4.0600    0.0000 H   0  0  0  0  0  0  0  0  0  0  0  0
   16.9494    4.2869    0.0000 H   0  0  0  0  0  0  0  0  0  0  0  0
    5.1350   -1.6300    0.0000 H   0  0  0  0  0  0  0  0  0  0  0  0
    3.8705   -3.2250    0.0000 H   0  0  0  0  0  0  0  0  0  0  0  0
    4.6675   -3.2250    0.0000 H   0  0  0  0  0  0  0  0  0  0  0  0
    3.8015   -1.7750    0.0000 H   0  0  0  0  0  0  0  0  0  0  0  0
    3.0044   -1.7750    0.0000 H   0  0  0  0  0  0  0  0  0  0  0  0
    2.0000   -2.4400    0.0000 H   0  0  0  0  0  0  0  0  0  0  0  0
  1 21  2  0  0  0  0
  2 23  1  0  0  0  0
  2 62  1  0  0  0  0
  3 21  1  0  0  0  0
  3 22  1  0  0  0  0
  3 57  1  0  0  0  0
  4  5  1  0  0  0  0
  4  8  1  0  0  0  0
  4 24  1  0  0  0  0
  4 25  1  0  0  0  0
  5 10  1  0  0  0  0
  5 26  1  0  0  0  0
  5 27  1  0  0  0  0
  6  7  1  0  0  0  0
  6  9  1  0  0  0  0
  6 28  1  0  0  0  0
  6 29  1  0  0  0  0
  7 11  1  0  0  0  0
  7 30  1  0  0  0  0
  7 31  1  0  0  0  0
  8 12  1  0  0  0  0
  8 32  1  0  0  0  0
  8 33  1  0  0  0  0
  9 13  1  0  0  0  0
  9 34  1  0  0  0  0
  9 35  1  0  0  0  0
 10 14  1  0  0  0  0
 10 36  1  0  0  0  0
 10 37  1  0  0  0  0
 11 15  1  0  0  0  0
 11 38  1  0  0  0  0
 11 39  1  0  0  0  0
 12 16  1  0  0  0  0
 12 40  1  0  0  0  0
 12 41  1  0  0  0  0
 13 17  1  0  0  0  0
 13 42  1  0  0  0  0
 13 43  1  0  0  0  0
 14 18  1  0  0  0  0
 14 44  1  0  0  0  0
 14 45  1  0  0  0  0
 15 19  1  0  0  0  0
 15 46  1  0  0  0  0
 15 47  1  0  0  0  0
 16 21  1  0  0  0  0
 16 48  1  0  0  0  0
 16 49  1  0  0  0  0
 17 20  1  0  0  0  0
 17 50  1  0  0  0  0
 17 51  1  0  0  0  0
 18 19  2  0  0  0  0
 18 52  1  0  0  0  0
 19 53  1  0  0  0  0
 20 54  1  0  0  0  0
 20 55  1  0  0  0  0
 20 56  1  0  0  0  0
 22 23  1  0  0  0  0
 22 58  1  0  0  0  0
 22 59  1  0  0  0  0
 23 60  1  0  0  0  0
 23 61  1  0  0  0  0
M  END
> <PUBCHEM_COMPOUND_CID>
5283454

> <PUBCHEM_COMPOUND_CANONICALIZED>
1

> <PUBCHEM_CACTVS_COMPLEXITY>
277

> <PUBCHEM_CACTVS_HBOND_ACCEPTOR>
2

> <PUBCHEM_CACTVS_HBOND_DONOR>
2

> <PUBCHEM_CACTVS_ROTATABLE_BOND>
17

> <PUBCHEM_CACTVS_SUBSKEYS>
AAADcfB6MAAAAAAAAAAAAAAAAAAAAAAAAAAAAAAAAAAAAAAAAAAAHgAQCAAACADhgAYCAALAAgCIACFSEAAAAAAgAAAICIEIAAgCEBIAgQAEAAAAlgCYAAMYiICAAAAAAAAAAAAAAAAAAAAAAAAAAAAAAA==

> <PUBCHEM_IUPAC_OPENEYE_NAME>
(Z)-N-(2-hydroxyethyl)octadec-9-enamide

> <PUBCHEM_IUPAC_CAS_NAME>
(Z)-N-(2-hydroxyethyl)-9-octadecenamide

> <PUBCHEM_IUPAC_NAME_MARKUP>
(<I>Z</I>)-<I>N</I>-(2-hydroxyethyl)octadec-9-enamide

> <PUBCHEM_IUPAC_NAME>
(Z)-N-(2-hydroxyethyl)octadec-9-enamide

> <PUBCHEM_IUPAC_SYSTEMATIC_NAME>
(Z)-N-(2-hydroxyethyl)octadec-9-enamide

> <PUBCHEM_IUPAC_TRADITIONAL_NAME>
(Z)-N-(2-hydroxyethyl)octadec-9-enamide

> <PUBCHEM_IUPAC_INCHI>
InChI=1S/C20H39NO2/c1-2-3-4-5-6-7-8-9-10-11-12-13-14-15-16-17-20(23)21-18-19-22/h9-10,22H,2-8,11-19H2,1H3,(H,21,23)/b10-9-

> <PUBCHEM_IUPAC_INCHIKEY>
BOWVQLFMWHZBEF-KTKRTIGZSA-N

> <PUBCHEM_XLOGP3_AA>
6.3

> <PUBCHEM_EXACT_MASS>
325.298079487

> <PUBCHEM_MOLECULAR_FORMULA>
C20H39NO2

> <PUBCHEM_MOLECULAR_WEIGHT>
325.5

> <PUBCHEM_OPENEYE_CAN_SMILES>
CCCCCCCCC=CCCCCCCCC(=O)NCCO

> <PUBCHEM_OPENEYE_ISO_SMILES>
CCCCCCCC/C=C\CCCCCCCC(=O)NCCO

> <PUBCHEM_CACTVS_TPSA>
49.3

> <PUBCHEM_MONOISOTOPIC_WEIGHT>
325.298079487

> <PUBCHEM_TOTAL_CHARGE>
0

> <PUBCHEM_HEAVY_ATOM_COUNT>
23

> <PUBCHEM_ATOM_DEF_STEREO_COUNT>
0

> <PUBCHEM_ATOM_UDEF_STEREO_COUNT>
0

> <PUBCHEM_BOND_DEF_STEREO_COUNT>
1

> <PUBCHEM_BOND_UDEF_STEREO_COUNT>
0

> <PUBCHEM_ISOTOPIC_ATOM_COUNT>
0

> <PUBCHEM_COMPONENT_COUNT>
1

> <PUBCHEM_CACTVS_TAUTO_COUNT>
2

> <PUBCHEM_COORDINATE_TYPE>
1
5
255

$$$$
10324367
  -OEChem-03012215082D

 82 84  0     1  0  0  0  0  0999 V2000
    6.6666    0.7209    0.0000 O   0  0  0  0  0  0  0  0  0  0  0  0
    5.8660   -0.3810    0.0000 O   0  0  0  0  0  0  0  0  0  0  0  0
    8.3650    3.9014    0.0000 O   0  0  0  0  0  0  0  0  0  0  0  0
    4.8660   -3.8452    0.0000 O   0  0  0  0  0  0  0  0  0  0  0  0
    9.9612    1.7914    0.0000 O   0  0  0  0  0  0  0  0  0  0  0  0
    7.3660   -1.2471    0.0000 N   0  0  0  0  0  0  0  0  0  0  0  0
    8.3139    1.2562    0.0000 N   0  0  0  0  0  0  0  0  0  0  0  0
    4.8660   -2.1131    0.0000 N   0  0  0  0  0  0  0  0  0  0  0  0
    3.3660   -2.9791    0.0000 N   0  0  0  0  0  0  0  0  0  0  0  0
   10.3213    3.4856    0.0000 N   0  0  0  0  0  0  0  0  0  0  0  0
    8.9049   -0.7471    0.0000 C   0  0  1  0  0  0  0  0  0  0  0  0
    9.7714   -1.2471    0.0000 C   0  0  0  0  0  0  0  0  0  0  0  0
    8.9049   -1.7471    0.0000 C   0  0  1  0  0  0  0  0  0  0  0  0
    7.9538   -0.4381    0.0000 C   0  0  1  0  0  0  0  0  0  0  0  0
    7.9538   -2.0561    0.0000 C   0  0  0  0  0  0  0  0  0  0  0  0
   10.2714   -2.1131    0.0000 C   0  0  0  0  0  0  0  0  0  0  0  0
   10.2714   -0.3810    0.0000 C   0  0  0  0  0  0  0  0  0  0  0  0
    7.6448    0.5130    0.0000 C   0  0  0  0  0  0  0  0  0  0  0  0
    6.3660   -1.2471    0.0000 C   0  0  0  0  0  0  0  0  0  0  0  0
    5.8660   -2.1131    0.0000 C   0  0  2  0  0  0  0  0  0  0  0  0
    6.3660   -2.9791    0.0000 C   0  0  0  0  0  0  0  0  0  0  0  0
    8.0049    2.2072    0.0000 C   0  0  3  0  0  0  0  0  0  0  0  0
    7.0268    2.4151    0.0000 C   0  0  0  0  0  0  0  0  0  0  0  0
    6.7177    3.3662    0.0000 C   0  0  0  0  0  0  0  0  0  0  0  0
    6.8660   -3.8452    0.0000 C   0  0  0  0  0  0  0  0  0  0  0  0
    5.5000   -3.4791    0.0000 C   0  0  0  0  0  0  0  0  0  0  0  0
    7.2320   -2.4791    0.0000 C   0  0  0  0  0  0  0  0  0  0  0  0
    8.6740    2.9503    0.0000 C   0  0  0  0  0  0  0  0  0  0  0  0
    7.1717    4.2572    0.0000 C   0  0  0  0  0  0  0  0  0  0  0  0
    5.8267    3.8202    0.0000 C   0  0  0  0  0  0  0  0  0  0  0  0
    6.2807    4.7112    0.0000 C   0  0  0  0  0  0  0  0  0  0  0  0
    4.3660   -2.9791    0.0000 C   0  0  0  0  0  0  0  0  0  0  0  0
    9.6522    2.7424    0.0000 C   0  0  0  0  0  0  0  0  0  0  0  0
    2.8660   -3.8452    0.0000 C   0  0  0  0  0  0  0  0  0  0  0  0
    2.3660   -4.7112    0.0000 C   0  0  0  0  0  0  0  0  0  0  0  0
    2.0000   -3.3452    0.0000 C   0  0  0  0  0  0  0  0  0  0  0  0
    3.7320   -4.3452    0.0000 C   0  0  0  0  0  0  0  0  0  0  0  0
    9.2505    0.0295    0.0000 H   0  0  0  0  0  0  0  0  0  0  0  0
    9.2505   -2.5236    0.0000 H   0  0  0  0  0  0  0  0  0  0  0  0
    7.3414   -0.3411    0.0000 H   0  0  0  0  0  0  0  0  0  0  0  0
    7.4169   -2.3661    0.0000 H   0  0  0  0  0  0  0  0  0  0  0  0
    8.2060   -2.6225    0.0000 H   0  0  0  0  0  0  0  0  0  0  0  0
    9.7345   -2.4231    0.0000 H   0  0  0  0  0  0  0  0  0  0  0  0
   10.5814   -2.6500    0.0000 H   0  0  0  0  0  0  0  0  0  0  0  0
   10.8083   -1.8031    0.0000 H   0  0  0  0  0  0  0  0  0  0  0  0
   10.8083   -0.6910    0.0000 H   0  0  0  0  0  0  0  0  0  0  0  0
   10.5814    0.1559    0.0000 H   0  0  0  0  0  0  0  0  0  0  0  0
    9.7345   -0.0710    0.0000 H   0  0  0  0  0  0  0  0  0  0  0  0
    5.5560   -1.5762    0.0000 H   0  0  0  0  0  0  0  0  0  0  0  0
    8.9204    1.1272    0.0000 H   0  0  0  0  0  0  0  0  0  0  0  0
    8.8363    2.0305    0.0000 H   0  0  0  0  0  0  0  0  0  0  0  0
    4.5560   -1.5762    0.0000 H   0  0  0  0  0  0  0  0  0  0  0  0
    6.4128    2.3288    0.0000 H   0  0  0  0  0  0  0  0  0  0  0  0
    7.0051    1.7955    0.0000 H   0  0  0  0  0  0  0  0  0  0  0  0
    6.2463    2.9635    0.0000 H   0  0  0  0  0  0  0  0  0  0  0  0
    6.3291   -4.1552    0.0000 H   0  0  0  0  0  0  0  0  0  0  0  0
    7.1760   -4.3821    0.0000 H   0  0  0  0  0  0  0  0  0  0  0  0
    7.4030   -3.5352    0.0000 H   0  0  0  0  0  0  0  0  0  0  0  0
    5.1900   -2.9422    0.0000 H   0  0  0  0  0  0  0  0  0  0  0  0
    4.9631   -3.7891    0.0000 H   0  0  0  0  0  0  0  0  0  0  0  0
    5.8100   -4.0161    0.0000 H   0  0  0  0  0  0  0  0  0  0  0  0
    7.5420   -3.0161    0.0000 H   0  0  0  0  0  0  0  0  0  0  0  0
    7.7690   -2.1691    0.0000 H   0  0  0  0  0  0  0  0  0  0  0  0
    6.9220   -1.9422    0.0000 H   0  0  0  0  0  0  0  0  0  0  0  0
    7.7242    3.9757    0.0000 H   0  0  0  0  0  0  0  0  0  0  0  0
    7.4532    4.8096    0.0000 H   0  0  0  0  0  0  0  0  0  0  0  0
    5.2743    4.1016    0.0000 H   0  0  0  0  0  0  0  0  0  0  0  0
    5.5453    3.2677    0.0000 H   0  0  0  0  0  0  0  0  0  0  0  0
    6.5622    5.2636    0.0000 H   0  0  0  0  0  0  0  0  0  0  0  0
    5.7283    4.9926    0.0000 H   0  0  0  0  0  0  0  0  0  0  0  0
    3.0560   -2.4422    0.0000 H   0  0  0  0  0  0  0  0  0  0  0  0
   10.9278    3.3567    0.0000 H   0  0  0  0  0  0  0  0  0  0  0  0
   10.1297    4.0752    0.0000 H   0  0  0  0  0  0  0  0  0  0  0  0
    1.8291   -4.4012    0.0000 H   0  0  0  0  0  0  0  0  0  0  0  0
    2.0560   -5.2481    0.0000 H   0  0  0  0  0  0  0  0  0  0  0  0
    2.9030   -5.0212    0.0000 H   0  0  0  0  0  0  0  0  0  0  0  0
    2.3100   -2.8082    0.0000 H   0  0  0  0  0  0  0  0  0  0  0  0
    1.4631   -3.0351    0.0000 H   0  0  0  0  0  0  0  0  0  0  0  0
    1.6900   -3.8821    0.0000 H   0  0  0  0  0  0  0  0  0  0  0  0
    3.4220   -4.8821    0.0000 H   0  0  0  0  0  0  0  0  0  0  0  0
    4.2690   -4.6552    0.0000 H   0  0  0  0  0  0  0  0  0  0  0  0
    4.0420   -3.8082    0.0000 H   0  0  0  0  0  0  0  0  0  0  0  0
  1 18  2  0  0  0  0
  2 19  2  0  0  0  0
  3 28  2  0  0  0  0
  4 32  2  0  0  0  0
  5 33  2  0  0  0  0
  6 14  1  0  0  0  0
  6 15  1  0  0  0  0
  6 19  1  0  0  0  0
  7 18  1  0  0  0  0
  7 22  1  0  0  0  0
  7 50  1  0  0  0  0
 20  8  1  6  0  0  0
  8 32  1  0  0  0  0
  8 52  1  0  0  0  0
  9 32  1  0  0  0  0
  9 34  1  0  0  0  0
  9 71  1  0  0  0  0
 10 33  1  0  0  0  0
 10 72  1  0  0  0  0
 10 73  1  0  0  0  0
 11 12  1  0  0  0  0
 11 13  1  0  0  0  0
 11 14  1  0  0  0  0
 11 38  1  6  0  0  0
 12 13  1  0  0  0  0
 12 16  1  0  0  0  0
 12 17  1  0  0  0  0
 13 15  1  0  0  0  0
 13 39  1  6  0  0  0
 14 18  1  6  0  0  0
 14 40  1  0  0  0  0
 15 41  1  0  0  0  0
 15 42  1  0  0  0  0
 16 43  1  0  0  0  0
 16 44  1  0  0  0  0
 16 45  1  0  0  0  0
 17 46  1  0  0  0  0
 17 47  1  0  0  0  0
 17 48  1  0  0  0  0
 19 20  1  0  0  0  0
 20 21  1  0  0  0  0
 20 49  1  0  0  0  0
 21 25  1  0  0  0  0
 21 26  1  0  0  0  0
 21 27  1  0  0  0  0
 22 23  1  0  0  0  0
 22 28  1  0  0  0  0
 22 51  1  0  0  0  0
 23 24  1  0  0  0  0
 23 53  1  0  0  0  0
 23 54  1  0  0  0  0
 24 29  1  0  0  0  0
 24 30  1  0  0  0  0
 24 55  1  0  0  0  0
 25 56  1  0  0  0  0
 25 57  1  0  0  0  0
 25 58  1  0  0  0  0
 26 59  1  0  0  0  0
 26 60  1  0  0  0  0
 26 61  1  0  0  0  0
 27 62  1  0  0  0  0
 27 63  1  0  0  0  0
 27 64  1  0  0  0  0
 28 33  1  0  0  0  0
 29 31  1  0  0  0  0
 29 65  1  0  0  0  0
 29 66  1  0  0  0  0
 30 31  1  0  0  0  0
 30 67  1  0  0  0  0
 30 68  1  0  0  0  0
 31 69  1  0  0  0  0
 31 70  1  0  0  0  0
 34 35  1  0  0  0  0
 34 36  1  0  0  0  0
 34 37  1  0  0  0  0
 35 74  1  0  0  0  0
 35 75  1  0  0  0  0
 35 76  1  0  0  0  0
 36 77  1  0  0  0  0
 36 78  1  0  0  0  0
 36 79  1  0  0  0  0
 37 80  1  0  0  0  0
 37 81  1  0  0  0  0
 37 82  1  0  0  0  0
M  END
> <PUBCHEM_COMPOUND_CID>
10324367

> <PUBCHEM_COMPOUND_CANONICALIZED>
1

> <PUBCHEM_CACTVS_COMPLEXITY>
959

> <PUBCHEM_CACTVS_HBOND_ACCEPTOR>
5

> <PUBCHEM_CACTVS_HBOND_DONOR>
4

> <PUBCHEM_CACTVS_ROTATABLE_BOND>
10

> <PUBCHEM_CACTVS_SUBSKEYS>
AAADcfB7uAAAAAAAAAAAAAAAGABgAWAAAAAsAAAAAAAAAAAAAAAAHgAQAAAAD6zBgAQDAAPAAAAIAIEQEAAAAAAAAAAAAIGIAACAQBoAwCAUAAAIFgKAAAEYiYCPgAAAAAAAAAAAAAAAAAAAAAAAAAAAAA==

> <PUBCHEM_IUPAC_OPENEYE_NAME>
(1R,2S,5S)-N-[3-amino-1-(cyclobutylmethyl)-2,3-dioxo-propyl]-3-[(2S)-2-(tert-butylcarbamoylamino)-3,3-dimethyl-butanoyl]-6,6-dimethyl-3-azabicyclo[3.1.0]hexane-2-carboxamide

> <PUBCHEM_IUPAC_CAS_NAME>
(1R,2S,5S)-N-(4-amino-1-cyclobutyl-3,4-dioxobutan-2-yl)-3-[(2S)-2-[[(tert-butylamino)-oxomethyl]amino]-3,3-dimethyl-1-oxobutyl]-6,6-dimethyl-3-azabicyclo[3.1.0]hexane-2-carboxamide

> <PUBCHEM_IUPAC_NAME_MARKUP>
(1<I>R</I>,2<I>S</I>,5<I>S</I>)-<I>N</I>-(4-amino-1-cyclobutyl-3,4-dioxobutan-2-yl)-3-[(2<I>S</I>)-2-(<I>tert</I>-butylcarbamoylamino)-3,3-dimethylbutanoyl]-6,6-dimethyl-3-azabicyclo[3.1.0]hexane-2-carboxamide

> <PUBCHEM_IUPAC_NAME>
(1R,2S,5S)-N-(4-amino-1-cyclobutyl-3,4-dioxobutan-2-yl)-3-[(2S)-2-(tert-butylcarbamoylamino)-3,3-dimethylbutanoyl]-6,6-dimethyl-3-azabicyclo[3.1.0]hexane-2-carboxamide

> <PUBCHEM_IUPAC_SYSTEMATIC_NAME>
(1R,2S,5S)-N-[4-azanyl-1-cyclobutyl-3,4-bis(oxidanylidene)butan-2-yl]-3-[(2S)-2-(tert-butylcarbamoylamino)-3,3-dimethyl-butanoyl]-6,6-dimethyl-3-azabicyclo[3.1.0]hexane-2-carboxamide

> <PUBCHEM_IUPAC_TRADITIONAL_NAME>
(1R,2S,5S)-N-[3-amino-1-(cyclobutylmethyl)-2,3-diketo-propyl]-3-[(2S)-2-(tert-butylcarbamoylamino)-3,3-dimethyl-butanoyl]-6,6-dimethyl-3-azabicyclo[3.1.0]hexane-2-carboxamide

> <PUBCHEM_IUPAC_INCHI>
InChI=1S/C27H45N5O5/c1-25(2,3)20(30-24(37)31-26(4,5)6)23(36)32-13-15-17(27(15,7)8)18(32)22(35)29-16(19(33)21(28)34)12-14-10-9-11-14/h14-18,20H,9-13H2,1-8H3,(H2,28,34)(H,29,35)(H2,30,31,37)/t15-,16?,17-,18-,20+/m0/s1

> <PUBCHEM_IUPAC_INCHIKEY>
LHHCSNFAOIFYRV-DOVBMPENSA-N

> <PUBCHEM_XLOGP3_AA>
3.1

> <PUBCHEM_EXACT_MASS>
519.34206955

> <PUBCHEM_MOLECULAR_FORMULA>
C27H45N5O5

> <PUBCHEM_MOLECULAR_WEIGHT>
519.7

> <PUBCHEM_OPENEYE_CAN_SMILES>
CC1(C2C1C(N(C2)C(=O)C(C(C)(C)C)NC(=O)NC(C)(C)C)C(=O)NC(CC3CCC3)C(=O)C(=O)N)C

> <PUBCHEM_OPENEYE_ISO_SMILES>
CC1([C@@H]2[C@H]1[C@H](N(C2)C(=O)[C@H](C(C)(C)C)NC(=O)NC(C)(C)C)C(=O)NC(CC3CCC3)C(=O)C(=O)N)C

> <PUBCHEM_CACTVS_TPSA>
151

> <PUBCHEM_MONOISOTOPIC_WEIGHT>
519.34206955

> <PUBCHEM_TOTAL_CHARGE>
0

> <PUBCHEM_HEAVY_ATOM_COUNT>
37

> <PUBCHEM_ATOM_DEF_STEREO_COUNT>
4

> <PUBCHEM_ATOM_UDEF_STEREO_COUNT>
1

> <PUBCHEM_BOND_DEF_STEREO_COUNT>
0

> <PUBCHEM_BOND_UDEF_STEREO_COUNT>
0

> <PUBCHEM_ISOTOPIC_ATOM_COUNT>
0

> <PUBCHEM_COMPONENT_COUNT>
1

> <PUBCHEM_CACTVS_TAUTO_COUNT>
36

> <PUBCHEM_COORDINATE_TYPE>
1
5
255

> <PUBCHEM_BONDANNOTATIONS>
11  38  6
13  39  6
14  18  6
22  51  3
20  8  6

$$$$
155488743
  -OEChem-03012215082D

161165  0     1  0  0  0  0  0999 V2000
   21.4481   -0.8625    0.0000 S   0  0  0  0  0  0  0  0  0  0  0  0
    5.3548   -0.4609    0.0000 P   0  0  0  0  0  0  0  0  0  0  0  0
    8.4752   -1.7006    0.0000 P   0  0  3  0  0  0  0  0  0  0  0  0
   10.1980   -1.5226    0.0000 P   0  0  3  0  0  0  0  0  0  0  0  0
    5.9405   -3.4651    0.0000 O   0  0  0  0  0  0  0  0  0  0  0  0
    4.6844   -1.2028    0.0000 O   0  0  0  0  0  0  0  0  0  0  0  0
    3.4026   -2.9607    0.0000 O   0  0  0  0  0  0  0  0  0  0  0  0
    7.6651   -2.2870    0.0000 O   0  0  0  0  0  0  0  0  0  0  0  0
    6.0252    0.2811    0.0000 O   0  0  0  0  0  0  0  0  0  0  0  0
    4.6128    0.2096    0.0000 O   0  0  0  0  0  0  0  0  0  0  0  0
    6.0968   -1.1313    0.0000 O   0  0  0  0  0  0  0  0  0  0  0  0
    9.2852   -1.1143    0.0000 O   0  0  0  0  0  0  0  0  0  0  0  0
    9.0615   -2.5107    0.0000 O   0  0  0  0  0  0  0  0  0  0  0  0
    7.8888   -0.8906    0.0000 O   0  0  0  0  0  0  0  0  0  0  0  0
   11.1109   -1.9309    0.0000 O   0  0  0  0  0  0  0  0  0  0  0  0
   13.8494   -3.1558    0.0000 O   0  0  0  0  0  0  0  0  0  0  0  0
   10.6063   -0.6097    0.0000 O   0  0  0  0  0  0  0  0  0  0  0  0
    9.7897   -2.4354    0.0000 O   0  0  0  0  0  0  0  0  0  0  0  0
   14.4538   -0.5801    0.0000 O   0  0  0  0  0  0  0  0  0  0  0  0
   17.8996   -0.2239    0.0000 O   0  0  0  0  0  0  0  0  0  0  0  0
   28.0312    2.8339    0.0000 O   0  0  0  0  0  0  0  0  0  0  0  0
   27.5296   -0.7366    0.0000 O   0  0  0  0  0  0  0  0  0  0  0  0
   24.0838   -1.0927    0.0000 O   0  0  0  0  0  0  0  0  0  0  0  0
   27.9284    3.8286    0.0000 O   0  0  0  0  0  0  0  0  0  0  0  0
   23.7754    1.8914    0.0000 O   0  0  0  0  0  0  0  0  0  0  0  0
   23.0682    0.3103    0.0000 O   0  0  0  0  0  0  0  0  0  0  0  0
   22.4638   -2.2655    0.0000 O   0  0  0  0  0  0  0  0  0  0  0  0
   26.7071    7.2210    0.0000 O   0  0  0  0  0  0  0  0  0  0  0  0
   28.4300    7.3991    0.0000 O   0  0  0  0  0  0  0  0  0  0  0  0
    4.6783   -4.7230    0.0000 N   0  0  0  0  0  0  0  0  0  0  0  0
    4.6783   -6.3324    0.0000 N   0  0  0  0  0  0  0  0  0  0  0  0
    2.8660   -4.5277    0.0000 N   0  0  0  0  0  0  0  0  0  0  0  0
    2.0000   -6.0277    0.0000 N   0  0  0  0  0  0  0  0  0  0  0  0
    2.8660   -7.5277    0.0000 N   0  0  0  0  0  0  0  0  0  0  0  0
   15.4695   -1.9831    0.0000 N   0  0  0  0  0  0  0  0  0  0  0  0
   29.0468    1.4309    0.0000 N   0  0  0  0  0  0  0  0  0  0  0  0
   18.9152   -1.6269    0.0000 N   0  0  0  0  0  0  0  0  0  0  0  0
   29.2524   -0.5585    0.0000 N   0  0  0  0  0  0  0  0  0  0  0  0
   29.6512    4.0066    0.0000 N   0  0  0  0  0  0  0  0  0  0  0  0
    4.9917   -2.1544    0.0000 C   0  0  3  0  0  0  0  0  0  0  0  0
    4.4026   -2.9624    0.0000 C   0  0  3  0  0  0  0  0  0  0  0  0
    5.9422   -2.4651    0.0000 C   0  0  3  0  0  0  0  0  0  0  0  0
    4.9889   -3.7725    0.0000 C   0  0  3  0  0  0  0  0  0  0  0  0
    6.7523   -1.8787    0.0000 C   0  0  0  0  0  0  0  0  0  0  0  0
    3.7320   -5.0277    0.0000 C   0  0  0  0  0  0  0  0  0  0  0  0
    5.2619   -5.5277    0.0000 C   0  0  0  0  0  0  0  0  0  0  0  0
    3.7320   -6.0277    0.0000 C   0  0  0  0  0  0  0  0  0  0  0  0
    2.8660   -6.5277    0.0000 C   0  0  0  0  0  0  0  0  0  0  0  0
    2.0000   -5.0277    0.0000 C   0  0  0  0  0  0  0  0  0  0  0  0
   12.8337   -1.7528    0.0000 C   0  0  0  0  0  0  0  0  0  0  0  0
   11.9209   -1.3445    0.0000 C   0  0  0  0  0  0  0  0  0  0  0  0
   13.7466   -2.1611    0.0000 C   0  0  3  0  0  0  0  0  0  0  0  0
   13.2421   -0.8400    0.0000 C   0  0  0  0  0  0  0  0  0  0  0  0
   12.4254   -2.6657    0.0000 C   0  0  0  0  0  0  0  0  0  0  0  0
   14.5566   -1.5748    0.0000 C   0  0  0  0  0  0  0  0  0  0  0  0
   16.2795   -1.3967    0.0000 C   0  0  0  0  0  0  0  0  0  0  0  0
   17.1923   -1.8050    0.0000 C   0  0  0  0  0  0  0  0  0  0  0  0
   28.2368    0.8445    0.0000 C   0  0  3  0  0  0  0  0  0  0  0  0
   18.0024   -1.2186    0.0000 C   0  0  0  0  0  0  0  0  0  0  0  0
   27.3240    1.2528    0.0000 C   0  0  0  0  0  0  0  0  0  0  0  0
   29.7541    3.0120    0.0000 C   0  0  3  0  0  0  0  0  0  0  0  0
   30.6669    2.6036    0.0000 C   0  0  0  0  0  0  0  0  0  0  0  0
   28.9440    2.4256    0.0000 C   0  0  0  0  0  0  0  0  0  0  0  0
   28.3396   -0.1502    0.0000 C   0  0  0  0  0  0  0  0  0  0  0  0
   26.5139    0.6664    0.0000 C   0  0  0  0  0  0  0  0  0  0  0  0
   29.3553   -1.5532    0.0000 C   0  0  0  0  0  0  0  0  0  0  0  0
   30.2681   -1.9616    0.0000 C   0  0  0  0  0  0  0  0  0  0  0  0
   30.3709   -2.9563    0.0000 C   0  0  0  0  0  0  0  0  0  0  0  0
   31.4769    3.1900    0.0000 C   0  0  0  0  0  0  0  0  0  0  0  0
   19.7252   -1.0406    0.0000 C   0  0  0  0  0  0  0  0  0  0  0  0
   25.6011    1.0747    0.0000 C   0  0  0  0  0  0  0  0  0  0  0  0
   26.6167   -0.3283    0.0000 C   0  0  0  0  0  0  0  0  0  0  0  0
   31.2837   -3.3646    0.0000 C   0  0  0  0  0  0  0  0  0  0  0  0
   24.7910    0.4883    0.0000 C   0  0  0  0  0  0  0  0  0  0  0  0
   28.7384    4.4150    0.0000 C   0  0  0  0  0  0  0  0  0  0  0  0
   24.8939   -0.5064    0.0000 C   0  0  0  0  0  0  0  0  0  0  0  0
   25.8067   -0.9147    0.0000 C   0  0  0  0  0  0  0  0  0  0  0  0
   20.6381   -1.4489    0.0000 C   0  0  0  0  0  0  0  0  0  0  0  0
   32.3898    2.7817    0.0000 C   0  0  0  0  0  0  0  0  0  0  0  0
   31.3741    4.1847    0.0000 C   0  0  0  0  0  0  0  0  0  0  0  0
   28.6356    5.4097    0.0000 C   0  0  0  0  0  0  0  0  0  0  0  0
   31.3865   -4.3593    0.0000 C   0  0  0  0  0  0  0  0  0  0  0  0
   27.7228    5.8180    0.0000 C   0  0  0  0  0  0  0  0  0  0  0  0
   33.1998    3.3681    0.0000 C   0  0  0  0  0  0  0  0  0  0  0  0
   32.1842    4.7711    0.0000 C   0  0  0  0  0  0  0  0  0  0  0  0
   23.8782    0.8967    0.0000 C   0  0  0  0  0  0  0  0  0  0  0  0
   33.0970    4.3628    0.0000 C   0  0  0  0  0  0  0  0  0  0  0  0
   23.1710   -0.6844    0.0000 C   0  0  0  0  0  0  0  0  0  0  0  0
   22.3610   -1.2708    0.0000 C   0  0  0  0  0  0  0  0  0  0  0  0
   27.6200    6.8127    0.0000 C   0  0  0  0  0  0  0  0  0  0  0  0
    5.4309   -1.7168    0.0000 H   0  0  0  0  0  0  0  0  0  0  0  0
    4.1220   -2.4095    0.0000 H   0  0  0  0  0  0  0  0  0  0  0  0
    6.4942   -2.7475    0.0000 H   0  0  0  0  0  0  0  0  0  0  0  0
    5.4266   -4.2116    0.0000 H   0  0  0  0  0  0  0  0  0  0  0  0
    7.0999   -1.3653    0.0000 H   0  0  0  0  0  0  0  0  0  0  0  0
    6.3070   -1.4472    0.0000 H   0  0  0  0  0  0  0  0  0  0  0  0
    3.0935   -2.4232    0.0000 H   0  0  0  0  0  0  0  0  0  0  0  0
    5.8819   -5.5277    0.0000 H   0  0  0  0  0  0  0  0  0  0  0  0
    5.8346    0.8711    0.0000 H   0  0  0  0  0  0  0  0  0  0  0  0
    4.0228    0.0190    0.0000 H   0  0  0  0  0  0  0  0  0  0  0  0
    1.4631   -4.7177    0.0000 H   0  0  0  0  0  0  0  0  0  0  0  0
   12.2685   -0.8311    0.0000 H   0  0  0  0  0  0  0  0  0  0  0  0
   11.4757   -0.9131    0.0000 H   0  0  0  0  0  0  0  0  0  0  0  0
   13.2444   -2.5247    0.0000 H   0  0  0  0  0  0  0  0  0  0  0  0
    2.3291   -7.8377    0.0000 H   0  0  0  0  0  0  0  0  0  0  0  0
    3.4030   -7.8377    0.0000 H   0  0  0  0  0  0  0  0  0  0  0  0
    8.8084   -3.0766    0.0000 H   0  0  0  0  0  0  0  0  0  0  0  0
   13.8080   -1.0931    0.0000 H   0  0  0  0  0  0  0  0  0  0  0  0
   13.4952   -0.2740    0.0000 H   0  0  0  0  0  0  0  0  0  0  0  0
   12.6761   -0.5868    0.0000 H   0  0  0  0  0  0  0  0  0  0  0  0
   11.8595   -2.4125    0.0000 H   0  0  0  0  0  0  0  0  0  0  0  0
   12.1723   -3.2316    0.0000 H   0  0  0  0  0  0  0  0  0  0  0  0
   12.9914   -2.9188    0.0000 H   0  0  0  0  0  0  0  0  0  0  0  0
   14.4154   -3.4090    0.0000 H   0  0  0  0  0  0  0  0  0  0  0  0
   10.2428   -0.1075    0.0000 H   0  0  0  0  0  0  0  0  0  0  0  0
   15.5332   -2.5998    0.0000 H   0  0  0  0  0  0  0  0  0  0  0  0
   16.6271   -0.8833    0.0000 H   0  0  0  0  0  0  0  0  0  0  0  0
   15.8342   -0.9652    0.0000 H   0  0  0  0  0  0  0  0  0  0  0  0
   16.8447   -2.3184    0.0000 H   0  0  0  0  0  0  0  0  0  0  0  0
   17.6376   -2.2365    0.0000 H   0  0  0  0  0  0  0  0  0  0  0  0
   28.8028    0.5913    0.0000 H   0  0  0  0  0  0  0  0  0  0  0  0
   27.6715    1.7662    0.0000 H   0  0  0  0  0  0  0  0  0  0  0  0
   26.8787    1.6843    0.0000 H   0  0  0  0  0  0  0  0  0  0  0  0
   29.1881    3.2651    0.0000 H   0  0  0  0  0  0  0  0  0  0  0  0
   29.6128    1.1777    0.0000 H   0  0  0  0  0  0  0  0  0  0  0  0
   30.3193    2.0902    0.0000 H   0  0  0  0  0  0  0  0  0  0  0  0
   31.1121    2.1722    0.0000 H   0  0  0  0  0  0  0  0  0  0  0  0
   28.7368   -1.5089    0.0000 H   0  0  0  0  0  0  0  0  0  0  0  0
   29.2042   -2.1546    0.0000 H   0  0  0  0  0  0  0  0  0  0  0  0
   18.9789   -2.2437    0.0000 H   0  0  0  0  0  0  0  0  0  0  0  0
   30.8865   -2.0059    0.0000 H   0  0  0  0  0  0  0  0  0  0  0  0
   30.4191   -1.3602    0.0000 H   0  0  0  0  0  0  0  0  0  0  0  0
   29.7547   -0.1950    0.0000 H   0  0  0  0  0  0  0  0  0  0  0  0
   29.7525   -2.9119    0.0000 H   0  0  0  0  0  0  0  0  0  0  0  0
   30.2199   -3.5576    0.0000 H   0  0  0  0  0  0  0  0  0  0  0  0
   30.1535    4.3702    0.0000 H   0  0  0  0  0  0  0  0  0  0  0  0
   20.0728   -0.5272    0.0000 H   0  0  0  0  0  0  0  0  0  0  0  0
   19.2800   -0.6091    0.0000 H   0  0  0  0  0  0  0  0  0  0  0  0
   25.5373    1.6914    0.0000 H   0  0  0  0  0  0  0  0  0  0  0  0
   27.1827   -0.5814    0.0000 H   0  0  0  0  0  0  0  0  0  0  0  0
   31.9022   -3.4089    0.0000 H   0  0  0  0  0  0  0  0  0  0  0  0
   31.4348   -2.7633    0.0000 H   0  0  0  0  0  0  0  0  0  0  0  0
   25.8704   -1.5314    0.0000 H   0  0  0  0  0  0  0  0  0  0  0  0
   20.2905   -1.9623    0.0000 H   0  0  0  0  0  0  0  0  0  0  0  0
   21.0833   -1.8803    0.0000 H   0  0  0  0  0  0  0  0  0  0  0  0
   32.4535    2.1650    0.0000 H   0  0  0  0  0  0  0  0  0  0  0  0
   30.8082    4.4379    0.0000 H   0  0  0  0  0  0  0  0  0  0  0  0
   29.2540    5.3654    0.0000 H   0  0  0  0  0  0  0  0  0  0  0  0
   28.7866    6.0110    0.0000 H   0  0  0  0  0  0  0  0  0  0  0  0
   30.7698   -4.4230    0.0000 H   0  0  0  0  0  0  0  0  0  0  0  0
   31.4503   -4.9760    0.0000 H   0  0  0  0  0  0  0  0  0  0  0  0
   32.0033   -4.2955    0.0000 H   0  0  0  0  0  0  0  0  0  0  0  0
   27.1043    5.8623    0.0000 H   0  0  0  0  0  0  0  0  0  0  0  0
   27.5717    5.2167    0.0000 H   0  0  0  0  0  0  0  0  0  0  0  0
   33.7658    3.1149    0.0000 H   0  0  0  0  0  0  0  0  0  0  0  0
   32.1204    5.3878    0.0000 H   0  0  0  0  0  0  0  0  0  0  0  0
   33.5992    4.7264    0.0000 H   0  0  0  0  0  0  0  0  0  0  0  0
   23.5186   -0.1710    0.0000 H   0  0  0  0  0  0  0  0  0  0  0  0
   22.7257   -0.2530    0.0000 H   0  0  0  0  0  0  0  0  0  0  0  0
   23.2094    2.1445    0.0000 H   0  0  0  0  0  0  0  0  0  0  0  0
   26.6434    7.8377    0.0000 H   0  0  0  0  0  0  0  0  0  0  0  0
  1 78  1  0  0  0  0
  1 89  1  0  0  0  0
  2  6  1  0  0  0  0
  2  9  1  0  0  0  0
  2 10  1  0  0  0  0
  2 11  2  0  0  0  0
  3  8  1  0  0  0  0
  3 12  1  0  0  0  0
  3 13  1  0  0  0  0
  3 14  2  0  0  0  0
  4 12  1  0  0  0  0
  4 15  1  0  0  0  0
  4 17  1  0  0  0  0
  4 18  2  0  0  0  0
  5 42  1  0  0  0  0
  5 43  1  0  0  0  0
  6 40  1  0  0  0  0
  7 41  1  0  0  0  0
  7 97  1  0  0  0  0
  8 44  1  0  0  0  0
  9 99  1  0  0  0  0
 10100  1  0  0  0  0
 13107  1  0  0  0  0
 15 51  1  0  0  0  0
 16 52  1  0  0  0  0
 16114  1  0  0  0  0
 17115  1  0  0  0  0
 19 55  2  0  0  0  0
 20 59  2  0  0  0  0
 21 63  2  0  0  0  0
 22 64  2  0  0  0  0
 23 76  1  0  0  0  0
 23 88  1  0  0  0  0
 24 75  2  0  0  0  0
 25 86  1  0  0  0  0
 25160  1  0  0  0  0
 26 86  2  0  0  0  0
 27 89  2  0  0  0  0
 28 90  1  0  0  0  0
 28161  1  0  0  0  0
 29 90  2  0  0  0  0
 30 43  1  0  0  0  0
 30 45  1  0  0  0  0
 30 46  1  0  0  0  0
 31 46  2  0  0  0  0
 31 47  1  0  0  0  0
 32 45  2  0  0  0  0
 32 49  1  0  0  0  0
 33 48  1  0  0  0  0
 33 49  2  0  0  0  0
 34 48  1  0  0  0  0
 34105  1  0  0  0  0
 34106  1  0  0  0  0
 35 55  1  0  0  0  0
 35 56  1  0  0  0  0
 35116  1  0  0  0  0
 36 58  1  0  0  0  0
 36 63  1  0  0  0  0
 36125  1  0  0  0  0
 37 59  1  0  0  0  0
 37 70  1  0  0  0  0
 37130  1  0  0  0  0
 38 64  1  0  0  0  0
 38 66  1  0  0  0  0
 38133  1  0  0  0  0
 39 61  1  0  0  0  0
 39 75  1  0  0  0  0
 39136  1  0  0  0  0
 40 41  1  0  0  0  0
 40 42  1  0  0  0  0
 40 91  1  0  0  0  0
 41 43  1  0  0  0  0
 41 92  1  0  0  0  0
 42 44  1  0  0  0  0
 42 93  1  0  0  0  0
 43 94  1  0  0  0  0
 44 95  1  0  0  0  0
 44 96  1  0  0  0  0
 45 47  1  0  0  0  0
 46 98  1  0  0  0  0
 47 48  2  0  0  0  0
 49101  1  0  0  0  0
 50 51  1  0  0  0  0
 50 52  1  0  0  0  0
 50 53  1  0  0  0  0
 50 54  1  0  0  0  0
 51102  1  0  0  0  0
 51103  1  0  0  0  0
 52 55  1  0  0  0  0
 52104  1  0  0  0  0
 53108  1  0  0  0  0
 53109  1  0  0  0  0
 53110  1  0  0  0  0
 54111  1  0  0  0  0
 54112  1  0  0  0  0
 54113  1  0  0  0  0
 56 57  1  0  0  0  0
 56117  1  0  0  0  0
 56118  1  0  0  0  0
 57 59  1  0  0  0  0
 57119  1  0  0  0  0
 57120  1  0  0  0  0
 58 60  1  0  0  0  0
 58 64  1  0  0  0  0
 58121  1  0  0  0  0
 60 65  1  0  0  0  0
 60122  1  0  0  0  0
 60123  1  0  0  0  0
 61 62  1  0  0  0  0
 61 63  1  0  0  0  0
 61124  1  0  0  0  0
 62 69  1  0  0  0  0
 62126  1  0  0  0  0
 62127  1  0  0  0  0
 65 71  2  0  0  0  0
 65 72  1  0  0  0  0
 66 67  1  0  0  0  0
 66128  1  0  0  0  0
 66129  1  0  0  0  0
 67 68  1  0  0  0  0
 67131  1  0  0  0  0
 67132  1  0  0  0  0
 68 73  1  0  0  0  0
 68134  1  0  0  0  0
 68135  1  0  0  0  0
 69 79  2  0  0  0  0
 69 80  1  0  0  0  0
 70 78  1  0  0  0  0
 70137  1  0  0  0  0
 70138  1  0  0  0  0
 71 74  1  0  0  0  0
 71139  1  0  0  0  0
 72 77  2  0  0  0  0
 72140  1  0  0  0  0
 73 82  1  0  0  0  0
 73141  1  0  0  0  0
 73142  1  0  0  0  0
 74 76  2  0  0  0  0
 74 86  1  0  0  0  0
 75 81  1  0  0  0  0
 76 77  1  0  0  0  0
 77143  1  0  0  0  0
 78144  1  0  0  0  0
 78145  1  0  0  0  0
 79 84  1  0  0  0  0
 79146  1  0  0  0  0
 80 85  2  0  0  0  0
 80147  1  0  0  0  0
 81 83  1  0  0  0  0
 81148  1  0  0  0  0
 81149  1  0  0  0  0
 82150  1  0  0  0  0
 82151  1  0  0  0  0
 82152  1  0  0  0  0
 83 90  1  0  0  0  0
 83153  1  0  0  0  0
 83154  1  0  0  0  0
 84 87  2  0  0  0  0
 84155  1  0  0  0  0
 85 87  1  0  0  0  0
 85156  1  0  0  0  0
 87157  1  0  0  0  0
 88 89  1  0  0  0  0
 88158  1  0  0  0  0
 88159  1  0  0  0  0
M  END
> <PUBCHEM_COMPOUND_CID>
155488743

> <PUBCHEM_COMPOUND_CANONICALIZED>
1

> <PUBCHEM_CACTVS_COMPLEXITY>
2580

> <PUBCHEM_CACTVS_HBOND_ACCEPTOR>
30

> <PUBCHEM_CACTVS_HBOND_DONOR>
14

> <PUBCHEM_CACTVS_ROTATABLE_BOND>
39

> <PUBCHEM_CACTVS_SUBSKEYS>
AAADcfB//gNAAAAAAAAAAAAAAAAAAWJAAAA8YIAAAAAAAFgB/AAAHgQQCCAADjzl3wa3/r/MFxioQyfzfIKCiC01MLAJ2KHuXNiPfz7E/X+efWiv9hP7uaf/+OKPIAACAAAIAABAAAQAABAAAAAAAAAAAA==

> <PUBCHEM_IUPAC_OPENEYE_NAME>
2-[2-[2-[3-[[4-[[[5-(6-aminopurin-9-yl)-4-hydroxy-3-phosphonooxy-tetrahydrofuran-2-yl]methoxy-hydroxy-phosphoryl]oxy-hydroxy-phosphoryl]oxy-2-hydroxy-3,3-dimethyl-butanoyl]amino]propanoylamino]ethylsulfanyl]-2-oxo-ethoxy]-5-[2-[[2-(3-carboxypropanoylamino)-3-phenyl-propanoyl]amino]-3-oxo-3-(pentylamino)propyl]benzoic acid

> <PUBCHEM_IUPAC_CAS_NAME>
2-[2-[2-[[3-[[4-[[[5-(6-aminopurin-9-yl)-4-hydroxy-3-phosphonooxy-2-oxolanyl]methoxy-hydroxyphosphoryl]oxy-hydroxyphosphoryl]oxy-2-hydroxy-3,3-dimethyl-1-oxobutyl]amino]-1-oxopropyl]amino]ethylthio]-2-oxoethoxy]-5-[2-[[2-[(3-carboxy-1-oxopropyl)amino]-1-oxo-3-phenylpropyl]amino]-3-oxo-3-(pentylamino)propyl]benzoic acid

> <PUBCHEM_IUPAC_NAME_MARKUP>
2-[2-[2-[3-[[4-[[[5-(6-aminopurin-9-yl)-4-hydroxy-3-phosphonooxyoxolan-2-yl]methoxy-hydroxyphosphoryl]oxy-hydroxyphosphoryl]oxy-2-hydroxy-3,3-dimethylbutanoyl]amino]propanoylamino]ethylsulfanyl]-2-oxoethoxy]-5-[2-[[2-(3-carboxypropanoylamino)-3-phenylpropanoyl]amino]-3-oxo-3-(pentylamino)propyl]benzoic acid

> <PUBCHEM_IUPAC_NAME>
2-[2-[2-[3-[[4-[[[5-(6-aminopurin-9-yl)-4-hydroxy-3-phosphonooxyoxolan-2-yl]methoxy-hydroxyphosphoryl]oxy-hydroxyphosphoryl]oxy-2-hydroxy-3,3-dimethylbutanoyl]amino]propanoylamino]ethylsulfanyl]-2-oxoethoxy]-5-[2-[[2-(3-carboxypropanoylamino)-3-phenylpropanoyl]amino]-3-oxo-3-(pentylamino)propyl]benzoic acid

> <PUBCHEM_IUPAC_SYSTEMATIC_NAME>
2-[2-[2-[3-[[4-[[[5-(6-aminopurin-9-yl)-4-oxidanyl-3-phosphonooxy-oxolan-2-yl]methoxy-oxidanyl-phosphoryl]oxy-oxidanyl-phosphoryl]oxy-3,3-dimethyl-2-oxidanyl-butanoyl]amino]propanoylamino]ethylsulfanyl]-2-oxidanylidene-ethoxy]-5-[3-oxidanylidene-2-[[2-[(4-oxidanyl-4-oxidanylidene-butanoyl)amino]-3-phenyl-propanoyl]amino]-3-(pentylamino)propyl]benzoic acid

> <PUBCHEM_IUPAC_TRADITIONAL_NAME>
2-[2-[2-[3-[[4-[[(5-adenin-9-yl-4-hydroxy-3-phosphonooxy-tetrahydrofuran-2-yl)methoxy-hydroxy-phosphoryl]oxy-hydroxy-phosphoryl]oxy-2-hydroxy-3,3-dimethyl-butanoyl]amino]propanoylamino]ethylthio]-2-keto-ethoxy]-5-[3-(amylamino)-2-[[2-(3-carboxypropanoylamino)-3-phenyl-propanoyl]amino]-3-keto-propyl]benzoic acid

> <PUBCHEM_IUPAC_INCHI>
InChI=1S/C51H71N10O25P3S/c1-4-5-9-17-54-46(69)32(60-47(70)33(22-29-10-7-6-8-11-29)59-37(63)14-15-38(64)65)23-30-12-13-34(31(21-30)50(72)73)81-25-39(66)90-20-19-53-36(62)16-18-55-48(71)43(68)51(2,3)26-83-89(79,80)86-88(77,78)82-24-35-42(85-87(74,75)76)41(67)49(84-35)61-28-58-40-44(52)56-27-57-45(40)61/h6-8,10-13,21,27-28,32-33,35,41-43,49,67-68H,4-5,9,14-20,22-26H2,1-3H3,(H,53,62)(H,54,69)(H,55,71)(H,59,63)(H,60,70)(H,64,65)(H,72,73)(H,77,78)(H,79,80)(H2,52,56,57)(H2,74,75,76)

> <PUBCHEM_IUPAC_INCHIKEY>
ANWZVVBXXFGISB-UHFFFAOYSA-N

> <PUBCHEM_XLOGP3_AA>
-2.9

> <PUBCHEM_EXACT_MASS>
1348.35253996

> <PUBCHEM_MOLECULAR_FORMULA>
C51H71N10O25P3S

> <PUBCHEM_MOLECULAR_WEIGHT>
1349.1

> <PUBCHEM_OPENEYE_CAN_SMILES>
CCCCCNC(=O)C(CC1=CC(=C(C=C1)OCC(=O)SCCNC(=O)CCNC(=O)C(C(C)(C)COP(=O)(O)OP(=O)(O)OCC2C(C(C(O2)N3C=NC4=C(N=CN=C43)N)O)OP(=O)(O)O)O)C(=O)O)NC(=O)C(CC5=CC=CC=C5)NC(=O)CCC(=O)O

> <PUBCHEM_OPENEYE_ISO_SMILES>
CCCCCNC(=O)C(CC1=CC(=C(C=C1)OCC(=O)SCCNC(=O)CCNC(=O)C(C(C)(C)COP(=O)(O)OP(=O)(O)OCC2C(C(C(O2)N3C=NC4=C(N=CN=C43)N)O)OP(=O)(O)O)O)C(=O)O)NC(=O)C(CC5=CC=CC=C5)NC(=O)CCC(=O)O

> <PUBCHEM_CACTVS_TPSA>
560

> <PUBCHEM_MONOISOTOPIC_WEIGHT>
1348.35253996

> <PUBCHEM_TOTAL_CHARGE>
0

> <PUBCHEM_HEAVY_ATOM_COUNT>
90

> <PUBCHEM_ATOM_DEF_STEREO_COUNT>
0

> <PUBCHEM_ATOM_UDEF_STEREO_COUNT>
7

> <PUBCHEM_BOND_DEF_STEREO_COUNT>
0

> <PUBCHEM_BOND_UDEF_STEREO_COUNT>
0

> <PUBCHEM_ISOTOPIC_ATOM_COUNT>
0

> <PUBCHEM_COMPONENT_COUNT>
1

> <PUBCHEM_CACTVS_TAUTO_COUNT>
-1

> <PUBCHEM_COORDINATE_TYPE>
1
5
255

> <PUBCHEM_BONDANNOTATIONS>
52  16  3
43  30  3
30  45  8
30  46  8
31  46  8
31  47  8
32  45  8
32  49  8
33  48  8
33  49  8
42  44  3
45  47  8
47  48  8
58  60  3
40  6  3
61  62  3
65  71  8
65  72  8
69  79  8
69  80  8
41  7  3
71  74  8
72  77  8
74  76  8
76  77  8
79  84  8
80  85  8
84  87  8
85  87  8

$$$$
155488775
  -OEChem-03012215082D

133137  0     1  0  0  0  0  0999 V2000
   28.5452    1.2680    0.0000 Cl   0  0  0  0  0  0  0  0  0  0  0  0
   29.9597    4.4301    0.0000 Cl   0  0  0  0  0  0  0  0  0  0  0  0
   34.7295    0.3991    0.0000 Cl   0  0  0  0  0  0  0  0  0  0  0  0
   21.4481    2.5451    0.0000 S    0  0  0  0  0  0  0  0  0  0  0  0
    5.3548    2.9467    0.0000 P    0  0  0  0  0  0  0  0  0  0  0  0
    8.4752    1.7069    0.0000 P    0  0  3  0  0  0  0  0  0  0  0  0
   10.1980    1.8850    0.0000 P    0  0  3  0  0  0  0  0  0  0  0  0
    5.9405   -0.0575    0.0000 O    0  0  0  0  0  0  0  0  0  0  0  0
    4.6844    2.2047    0.0000 O    0  0  0  0  0  0  0  0  0  0  0  0
    3.4026    0.4469    0.0000 O    0  0  0  0  0  0  0  0  0  0  0  0
    7.6651    1.1206    0.0000 O    0  0  0  0  0  0  0  0  0  0  0  0
    6.0252    3.6887    0.0000 O    0  0  0  0  0  0  0  0  0  0  0  0
    4.6128    3.6171    0.0000 O    0  0  0  0  0  0  0  0  0  0  0  0
    9.2852    2.2933    0.0000 O    0  0  0  0  0  0  0  0  0  0  0  0
    6.0968    2.2763    0.0000 O    0  0  0  0  0  0  0  0  0  0  0  0
    9.0615    0.8969    0.0000 O    0  0  0  0  0  0  0  0  0  0  0  0
   11.1109    1.4767    0.0000 O    0  0  0  0  0  0  0  0  0  0  0  0
    7.8888    2.5170    0.0000 O    0  0  0  0  0  0  0  0  0  0  0  0
   13.8494    0.2517    0.0000 O    0  0  0  0  0  0  0  0  0  0  0  0
   10.6063    2.7978    0.0000 O    0  0  0  0  0  0  0  0  0  0  0  0
    9.7897    0.9722    0.0000 O    0  0  0  0  0  0  0  0  0  0  0  0
   14.4538    2.8275    0.0000 O    0  0  0  0  0  0  0  0  0  0  0  0
   17.8996    3.1837    0.0000 O    0  0  0  0  0  0  0  0  0  0  0  0
   28.3396    3.2574    0.0000 O    0  0  0  0  0  0  0  0  0  0  0  0
   22.4638    1.1421    0.0000 O    0  0  0  0  0  0  0  0  0  0  0  0
   32.6982    3.2052    0.0000 O    0  0  0  0  0  0  0  0  0  0  0  0
   34.4211    3.3832    0.0000 O    0  0  0  0  0  0  0  0  0  0  0  0
    4.6783   -1.3154    0.0000 N    0  0  0  0  0  0  0  0  0  0  0  0
    4.6783   -2.9249    0.0000 N    0  0  0  0  0  0  0  0  0  0  0  0
    2.8660   -1.1201    0.0000 N    0  0  0  0  0  0  0  0  0  0  0  0
    2.0000   -2.6201    0.0000 N    0  0  0  0  0  0  0  0  0  0  0  0
    2.8660   -4.1201    0.0000 N    0  0  0  0  0  0  0  0  0  0  0  0
   15.4695    1.4245    0.0000 N    0  0  0  0  0  0  0  0  0  0  0  0
   18.9152    1.7806    0.0000 N    0  0  0  0  0  0  0  0  0  0  0  0
   31.9910    1.6241    0.0000 N    0  0  0  0  0  0  0  0  0  0  0  0
   33.7138    1.8022    0.0000 N    0  0  0  0  0  0  0  0  0  0  0  0
    4.9917    1.2532    0.0000 C    0  0  3  0  0  0  0  0  0  0  0  0
    4.4026    0.4452    0.0000 C    0  0  3  0  0  0  0  0  0  0  0  0
    5.9422    0.9425    0.0000 C    0  0  3  0  0  0  0  0  0  0  0  0
    4.9889   -0.3649    0.0000 C    0  0  3  0  0  0  0  0  0  0  0  0
    6.7523    1.5289    0.0000 C    0  0  0  0  0  0  0  0  0  0  0  0
    3.7320   -1.6201    0.0000 C    0  0  0  0  0  0  0  0  0  0  0  0
    5.2619   -2.1201    0.0000 C    0  0  0  0  0  0  0  0  0  0  0  0
    3.7320   -2.6201    0.0000 C    0  0  0  0  0  0  0  0  0  0  0  0
    2.8660   -3.1201    0.0000 C    0  0  0  0  0  0  0  0  0  0  0  0
   12.8337    1.6548    0.0000 C    0  0  0  0  0  0  0  0  0  0  0  0
    2.0000   -1.6201    0.0000 C    0  0  0  0  0  0  0  0  0  0  0  0
   11.9209    2.0631    0.0000 C    0  0  0  0  0  0  0  0  0  0  0  0
   13.7466    1.2464    0.0000 C    0  0  3  0  0  0  0  0  0  0  0  0
   13.2421    2.5676    0.0000 C    0  0  0  0  0  0  0  0  0  0  0  0
   12.4254    0.7419    0.0000 C    0  0  0  0  0  0  0  0  0  0  0  0
   14.5566    1.8328    0.0000 C    0  0  0  0  0  0  0  0  0  0  0  0
   16.2795    2.0109    0.0000 C    0  0  0  0  0  0  0  0  0  0  0  0
   17.1923    1.6026    0.0000 C    0  0  0  0  0  0  0  0  0  0  0  0
   18.0024    2.1890    0.0000 C    0  0  0  0  0  0  0  0  0  0  0  0
   24.8939    2.9012    0.0000 C    0  0  0  0  0  0  0  0  0  0  0  0
   25.8067    2.4929    0.0000 C    0  0  0  0  0  0  0  0  0  0  0  0
   24.0838    2.3148    0.0000 C    0  0  0  0  0  0  0  0  0  0  0  0
   26.6167    3.0793    0.0000 C    0  0  0  0  0  0  0  0  0  0  0  0
   19.7252    2.3670    0.0000 C    0  0  0  0  0  0  0  0  0  0  0  0
   23.1710    2.7232    0.0000 C    0  0  0  0  0  0  0  0  0  0  0  0
   20.6381    1.9587    0.0000 C    0  0  0  0  0  0  0  0  0  0  0  0
   27.5296    2.6710    0.0000 C    0  0  0  0  0  0  0  0  0  0  0  0
   22.3610    2.1368    0.0000 C    0  0  0  0  0  0  0  0  0  0  0  0
   29.2524    2.8490    0.0000 C    0  0  0  0  0  0  0  0  0  0  0  0
   29.3553    1.8544    0.0000 C    0  0  0  0  0  0  0  0  0  0  0  0
   30.0625    3.4354    0.0000 C    0  0  0  0  0  0  0  0  0  0  0  0
   30.2681    1.4460    0.0000 C    0  0  0  0  0  0  0  0  0  0  0  0
   30.9753    3.0271    0.0000 C    0  0  0  0  0  0  0  0  0  0  0  0
   31.0781    2.0324    0.0000 C    0  0  0  0  0  0  0  0  0  0  0  0
   32.8010    2.2105    0.0000 C    0  0  0  0  0  0  0  0  0  0  0  0
   34.5239    2.3886    0.0000 C    0  0  0  0  0  0  0  0  0  0  0  0
   35.4367    1.9802    0.0000 C    0  0  0  0  0  0  0  0  0  0  0  0
   35.5395    0.9855    0.0000 C    0  0  0  0  0  0  0  0  0  0  0  0
   36.2467    2.5666    0.0000 C    0  0  0  0  0  0  0  0  0  0  0  0
   36.4524    0.5772    0.0000 C    0  0  0  0  0  0  0  0  0  0  0  0
   37.1596    2.1583    0.0000 C    0  0  0  0  0  0  0  0  0  0  0  0
   37.2624    1.1636    0.0000 C    0  0  0  0  0  0  0  0  0  0  0  0
    5.4309    1.6908    0.0000 H    0  0  0  0  0  0  0  0  0  0  0  0
    4.1220    0.9981    0.0000 H    0  0  0  0  0  0  0  0  0  0  0  0
    6.4942    0.6601    0.0000 H    0  0  0  0  0  0  0  0  0  0  0  0
    5.4266   -0.8040    0.0000 H    0  0  0  0  0  0  0  0  0  0  0  0
    7.0999    2.0423    0.0000 H    0  0  0  0  0  0  0  0  0  0  0  0
    6.3070    1.9603    0.0000 H    0  0  0  0  0  0  0  0  0  0  0  0
    3.0935    0.9844    0.0000 H    0  0  0  0  0  0  0  0  0  0  0  0
    5.8819   -2.1201    0.0000 H    0  0  0  0  0  0  0  0  0  0  0  0
    5.8346    4.2787    0.0000 H    0  0  0  0  0  0  0  0  0  0  0  0
    4.0228    3.4266    0.0000 H    0  0  0  0  0  0  0  0  0  0  0  0
   12.2685    2.5765    0.0000 H    0  0  0  0  0  0  0  0  0  0  0  0
   11.4757    2.4945    0.0000 H    0  0  0  0  0  0  0  0  0  0  0  0
   13.2444    0.8829    0.0000 H    0  0  0  0  0  0  0  0  0  0  0  0
    1.4631   -1.3101    0.0000 H    0  0  0  0  0  0  0  0  0  0  0  0
   13.8080    2.3144    0.0000 H    0  0  0  0  0  0  0  0  0  0  0  0
   13.4952    3.1336    0.0000 H    0  0  0  0  0  0  0  0  0  0  0  0
   12.6761    2.8208    0.0000 H    0  0  0  0  0  0  0  0  0  0  0  0
   11.8595    0.9951    0.0000 H    0  0  0  0  0  0  0  0  0  0  0  0
   12.1723    0.1760    0.0000 H    0  0  0  0  0  0  0  0  0  0  0  0
   12.9914    0.4888    0.0000 H    0  0  0  0  0  0  0  0  0  0  0  0
    8.8084    0.3309    0.0000 H    0  0  0  0  0  0  0  0  0  0  0  0
    2.3291   -4.4301    0.0000 H    0  0  0  0  0  0  0  0  0  0  0  0
    3.4030   -4.4301    0.0000 H    0  0  0  0  0  0  0  0  0  0  0  0
   14.4154   -0.0014    0.0000 H    0  0  0  0  0  0  0  0  0  0  0  0
   15.5332    0.8078    0.0000 H    0  0  0  0  0  0  0  0  0  0  0  0
   10.2428    3.3001    0.0000 H    0  0  0  0  0  0  0  0  0  0  0  0
   16.6271    2.5243    0.0000 H    0  0  0  0  0  0  0  0  0  0  0  0
   15.8342    2.4423    0.0000 H    0  0  0  0  0  0  0  0  0  0  0  0
   16.8447    1.0892    0.0000 H    0  0  0  0  0  0  0  0  0  0  0  0
   17.6376    1.1711    0.0000 H    0  0  0  0  0  0  0  0  0  0  0  0
   25.2414    3.4146    0.0000 H    0  0  0  0  0  0  0  0  0  0  0  0
   24.4486    3.3327    0.0000 H    0  0  0  0  0  0  0  0  0  0  0  0
   25.4591    1.9795    0.0000 H    0  0  0  0  0  0  0  0  0  0  0  0
   26.2519    2.0614    0.0000 H    0  0  0  0  0  0  0  0  0  0  0  0
   23.7362    1.8014    0.0000 H    0  0  0  0  0  0  0  0  0  0  0  0
   24.5291    1.8834    0.0000 H    0  0  0  0  0  0  0  0  0  0  0  0
   18.9789    1.1639    0.0000 H    0  0  0  0  0  0  0  0  0  0  0  0
   26.9643    3.5927    0.0000 H    0  0  0  0  0  0  0  0  0  0  0  0
   26.1715    3.5108    0.0000 H    0  0  0  0  0  0  0  0  0  0  0  0
   20.0728    2.8804    0.0000 H    0  0  0  0  0  0  0  0  0  0  0  0
   19.2800    2.7985    0.0000 H    0  0  0  0  0  0  0  0  0  0  0  0
   23.5186    3.2366    0.0000 H    0  0  0  0  0  0  0  0  0  0  0  0
   22.7257    3.1546    0.0000 H    0  0  0  0  0  0  0  0  0  0  0  0
   20.2905    1.4453    0.0000 H    0  0  0  0  0  0  0  0  0  0  0  0
   21.0833    1.5272    0.0000 H    0  0  0  0  0  0  0  0  0  0  0  0
   27.1820    2.1576    0.0000 H    0  0  0  0  0  0  0  0  0  0  0  0
   27.9748    2.2395    0.0000 H    0  0  0  0  0  0  0  0  0  0  0  0
   30.3318    0.8293    0.0000 H    0  0  0  0  0  0  0  0  0  0  0  0
   31.4775    3.3907    0.0000 H    0  0  0  0  0  0  0  0  0  0  0  0
   32.0547    1.0074    0.0000 H    0  0  0  0  0  0  0  0  0  0  0  0
   33.7776    1.1854    0.0000 H    0  0  0  0  0  0  0  0  0  0  0  0
   36.1830    3.1833    0.0000 H    0  0  0  0  0  0  0  0  0  0  0  0
   36.5161   -0.0395    0.0000 H    0  0  0  0  0  0  0  0  0  0  0  0
   37.6618    2.5219    0.0000 H    0  0  0  0  0  0  0  0  0  0  0  0
   37.8284    0.9104    0.0000 H    0  0  0  0  0  0  0  0  0  0  0  0
  1 66  1  0  0  0  0
  2 67  1  0  0  0  0
  3 74  1  0  0  0  0
  4 62  1  0  0  0  0
  4 64  1  0  0  0  0
  5  9  1  0  0  0  0
  5 12  1  0  0  0  0
  5 13  1  0  0  0  0
  5 15  2  0  0  0  0
  6 11  1  0  0  0  0
  6 14  1  0  0  0  0
  6 16  1  0  0  0  0
  6 18  2  0  0  0  0
  7 14  1  0  0  0  0
  7 17  1  0  0  0  0
  7 20  1  0  0  0  0
  7 21  2  0  0  0  0
  8 39  1  0  0  0  0
  8 40  1  0  0  0  0
  9 37  1  0  0  0  0
 10 38  1  0  0  0  0
 10 85  1  0  0  0  0
 11 41  1  0  0  0  0
 12 87  1  0  0  0  0
 13 88  1  0  0  0  0
 16 99  1  0  0  0  0
 17 48  1  0  0  0  0
 19 49  1  0  0  0  0
 19102  1  0  0  0  0
 20104  1  0  0  0  0
 22 52  2  0  0  0  0
 23 55  2  0  0  0  0
 24 63  1  0  0  0  0
 24 65  1  0  0  0  0
 25 64  2  0  0  0  0
 26 71  2  0  0  0  0
 27 72  2  0  0  0  0
 28 40  1  0  0  0  0
 28 42  1  0  0  0  0
 28 43  1  0  0  0  0
 29 43  2  0  0  0  0
 29 44  1  0  0  0  0
 30 42  2  0  0  0  0
 30 47  1  0  0  0  0
 31 45  1  0  0  0  0
 31 47  2  0  0  0  0
 32 45  1  0  0  0  0
 32100  1  0  0  0  0
 32101  1  0  0  0  0
 33 52  1  0  0  0  0
 33 53  1  0  0  0  0
 33103  1  0  0  0  0
 34 55  1  0  0  0  0
 34 60  1  0  0  0  0
 34115  1  0  0  0  0
 35 70  1  0  0  0  0
 35 71  1  0  0  0  0
 35128  1  0  0  0  0
 36 71  1  0  0  0  0
 36 72  1  0  0  0  0
 36129  1  0  0  0  0
 37 38  1  0  0  0  0
 37 39  1  0  0  0  0
 37 79  1  0  0  0  0
 38 40  1  0  0  0  0
 38 80  1  0  0  0  0
 39 41  1  0  0  0  0
 39 81  1  0  0  0  0
 40 82  1  0  0  0  0
 41 83  1  0  0  0  0
 41 84  1  0  0  0  0
 42 44  1  0  0  0  0
 43 86  1  0  0  0  0
 44 45  2  0  0  0  0
 46 48  1  0  0  0  0
 46 49  1  0  0  0  0
 46 50  1  0  0  0  0
 46 51  1  0  0  0  0
 47 92  1  0  0  0  0
 48 89  1  0  0  0  0
 48 90  1  0  0  0  0
 49 52  1  0  0  0  0
 49 91  1  0  0  0  0
 50 93  1  0  0  0  0
 50 94  1  0  0  0  0
 50 95  1  0  0  0  0
 51 96  1  0  0  0  0
 51 97  1  0  0  0  0
 51 98  1  0  0  0  0
 53 54  1  0  0  0  0
 53105  1  0  0  0  0
 53106  1  0  0  0  0
 54 55  1  0  0  0  0
 54107  1  0  0  0  0
 54108  1  0  0  0  0
 56 57  1  0  0  0  0
 56 58  1  0  0  0  0
 56109  1  0  0  0  0
 56110  1  0  0  0  0
 57 59  1  0  0  0  0
 57111  1  0  0  0  0
 57112  1  0  0  0  0
 58 61  1  0  0  0  0
 58113  1  0  0  0  0
 58114  1  0  0  0  0
 59 63  1  0  0  0  0
 59116  1  0  0  0  0
 59117  1  0  0  0  0
 60 62  1  0  0  0  0
 60118  1  0  0  0  0
 60119  1  0  0  0  0
 61 64  1  0  0  0  0
 61120  1  0  0  0  0
 61121  1  0  0  0  0
 62122  1  0  0  0  0
 62123  1  0  0  0  0
 63124  1  0  0  0  0
 63125  1  0  0  0  0
 65 66  2  0  0  0  0
 65 67  1  0  0  0  0
 66 68  1  0  0  0  0
 67 69  2  0  0  0  0
 68 70  2  0  0  0  0
 68126  1  0  0  0  0
 69 70  1  0  0  0  0
 69127  1  0  0  0  0
 72 73  1  0  0  0  0
 73 74  1  0  0  0  0
 73 75  2  0  0  0  0
 74 76  2  0  0  0  0
 75 77  1  0  0  0  0
 75130  1  0  0  0  0
 76 78  1  0  0  0  0
 76131  1  0  0  0  0
 77 78  2  0  0  0  0
 77132  1  0  0  0  0
 78133  1  0  0  0  0
M  END
> <PUBCHEM_COMPOUND_CID>
155488775

> <PUBCHEM_COMPOUND_CANONICALIZED>
1

> <PUBCHEM_CACTVS_COMPLEXITY>
2160

> <PUBCHEM_CACTVS_HBOND_ACCEPTOR>
25

> <PUBCHEM_CACTVS_HBOND_DONOR>
11

> <PUBCHEM_CACTVS_ROTATABLE_BOND>
30

> <PUBCHEM_CACTVS_SUBSKEYS>
AAADcfB//gNGAAAAAAAAAAAAAAAAAWJAAAA8YIAAAAAAAFgB/AAAHgYQCCAADh7l3ya39r/MFxioQydzdIKCiC01N/AJ2KFsf9iPfjvl/9uefSjv1zP77af6+CKPAEAAAAKBCAAAgAAABQIQAAAAAAAAAA==

> <PUBCHEM_IUPAC_OPENEYE_NAME>
S-[2-[3-[[4-[[[5-(6-aminopurin-9-yl)-4-hydroxy-3-phosphonooxy-tetrahydrofuran-2-yl]methoxy-hydroxy-phosphoryl]oxy-hydroxy-phosphoryl]oxy-2-hydroxy-3,3-dimethyl-butanoyl]amino]propanoylamino]ethyl] 7-[2,6-dichloro-4-[(2-chlorobenzoyl)carbamoylamino]phenoxy]heptanethioate

> <PUBCHEM_IUPAC_CAS_NAME>
7-[2,6-dichloro-4-[[[[(2-chlorophenyl)-oxomethyl]amino]-oxomethyl]amino]phenoxy]heptanethioic acid S-[2-[[3-[[4-[[[5-(6-aminopurin-9-yl)-4-hydroxy-3-phosphonooxy-2-oxolanyl]methoxy-hydroxyphosphoryl]oxy-hydroxyphosphoryl]oxy-2-hydroxy-3,3-dimethyl-1-oxobutyl]amino]-1-oxopropyl]amino]ethyl] ester

> <PUBCHEM_IUPAC_NAME_MARKUP>
<I>S</I>-[2-[3-[[4-[[[5-(6-aminopurin-9-yl)-4-hydroxy-3-phosphonooxyoxolan-2-yl]methoxy-hydroxyphosphoryl]oxy-hydroxyphosphoryl]oxy-2-hydroxy-3,3-dimethylbutanoyl]amino]propanoylamino]ethyl] 7-[2,6-dichloro-4-[(2-chlorobenzoyl)carbamoylamino]phenoxy]heptanethioate

> <PUBCHEM_IUPAC_NAME>
S-[2-[3-[[4-[[[5-(6-aminopurin-9-yl)-4-hydroxy-3-phosphonooxyoxolan-2-yl]methoxy-hydroxyphosphoryl]oxy-hydroxyphosphoryl]oxy-2-hydroxy-3,3-dimethylbutanoyl]amino]propanoylamino]ethyl] 7-[2,6-dichloro-4-[(2-chlorobenzoyl)carbamoylamino]phenoxy]heptanethioate

> <PUBCHEM_IUPAC_SYSTEMATIC_NAME>
S-[2-[3-[[4-[[[5-(6-aminopurin-9-yl)-4-oxidanyl-3-phosphonooxy-oxolan-2-yl]methoxy-oxidanyl-phosphoryl]oxy-oxidanyl-phosphoryl]oxy-3,3-dimethyl-2-oxidanyl-butanoyl]amino]propanoylamino]ethyl] 7-[2,6-bis(chloranyl)-4-[(2-chlorophenyl)carbonylcarbamoylamino]phenoxy]heptanethioate

> <PUBCHEM_IUPAC_TRADITIONAL_NAME>
7-[2,6-dichloro-4-[(2-chlorobenzoyl)carbamoylamino]phenoxy]heptanethioic acid S-[2-[3-[[4-[[(5-adenin-9-yl-4-hydroxy-3-phosphonooxy-tetrahydrofuran-2-yl)methoxy-hydroxy-phosphoryl]oxy-hydroxy-phosphoryl]oxy-2-hydroxy-3,3-dimethyl-butanoyl]amino]propanoylamino]ethyl] ester

> <PUBCHEM_IUPAC_INCHI>
InChI=1S/C42H55Cl3N9O20P3S/c1-42(2,20-71-77(67,68)74-76(65,66)70-19-28-34(73-75(62,63)64)32(57)40(72-28)54-22-51-31-36(46)49-21-50-37(31)54)35(58)39(60)48-13-12-29(55)47-14-16-78-30(56)11-5-3-4-8-15-69-33-26(44)17-23(18-27(33)45)52-41(61)53-38(59)24-9-6-7-10-25(24)43/h6-7,9-10,17-18,21-22,28,32,34-35,40,57-58H,3-5,8,11-16,19-20H2,1-2H3,(H,47,55)(H,48,60)(H,65,66)(H,67,68)(H2,46,49,50)(H2,62,63,64)(H2,52,53,59,61)

> <PUBCHEM_IUPAC_INCHIKEY>
BKDNXASEMBQAAR-UHFFFAOYSA-N

> <PUBCHEM_XLOGP3_AA>
0.5

> <PUBCHEM_EXACT_MASS>
1235.156250

> <PUBCHEM_MOLECULAR_FORMULA>
C42H55Cl3N9O20P3S

> <PUBCHEM_MOLECULAR_WEIGHT>
1237.3

> <PUBCHEM_OPENEYE_CAN_SMILES>
CC(C)(COP(=O)(O)OP(=O)(O)OCC1C(C(C(O1)N2C=NC3=C(N=CN=C32)N)O)OP(=O)(O)O)C(C(=O)NCCC(=O)NCCSC(=O)CCCCCCOC4=C(C=C(C=C4Cl)NC(=O)NC(=O)C5=CC=CC=C5Cl)Cl)O

> <PUBCHEM_OPENEYE_ISO_SMILES>
CC(C)(COP(=O)(O)OP(=O)(O)OCC1C(C(C(O1)N2C=NC3=C(N=CN=C32)N)O)OP(=O)(O)O)C(C(=O)NCCC(=O)NCCSC(=O)CCCCCCOC4=C(C=C(C=C4Cl)NC(=O)NC(=O)C5=CC=CC=C5Cl)Cl)O

> <PUBCHEM_CACTVS_TPSA>
456

> <PUBCHEM_MONOISOTOPIC_WEIGHT>
1235.156250

> <PUBCHEM_TOTAL_CHARGE>
0

> <PUBCHEM_HEAVY_ATOM_COUNT>
78

> <PUBCHEM_ATOM_DEF_STEREO_COUNT>
0

> <PUBCHEM_ATOM_UDEF_STEREO_COUNT>
5

> <PUBCHEM_BOND_DEF_STEREO_COUNT>
0

> <PUBCHEM_BOND_UDEF_STEREO_COUNT>
0

> <PUBCHEM_ISOTOPIC_ATOM_COUNT>
0

> <PUBCHEM_COMPONENT_COUNT>
1

> <PUBCHEM_CACTVS_TAUTO_COUNT>
-1

> <PUBCHEM_COORDINATE_TYPE>
1
5
255

> <PUBCHEM_BONDANNOTATIONS>
38  10  3
49  19  3
40  28  3
28  42  8
28  43  8
29  43  8
29  44  8
30  42  8
30  47  8
31  45  8
31  47  8
39  41  3
42  44  8
44  45  8
65  66  8
65  67  8
66  68  8
67  69  8
68  70  8
69  70  8
73  74  8
73  75  8
74  76  8
75  77  8
76  78  8
77  78  8
37  9  3

$$$$
155488820
  -OEChem-03012215082D

169174  0     1  0  0  0  0  0999 V2000
   13.8916    4.8412    0.0000 S   0  0  0  0  0  0  0  0  0  0  0  0
   27.1158   -4.3391    0.0000 P   0  0  0  0  0  0  0  0  0  0  0  0
   23.8655   -3.4967    0.0000 P   0  0  3  0  0  0  0  0  0  0  0  0
   22.5803   -2.3355    0.0000 P   0  0  3  0  0  0  0  0  0  0  0  0
    3.4990    8.8405    0.0000 P   0  0  0  0  0  0  0  0  0  0  0  0
    3.3320    0.9050    0.0000 P   0  0  0  0  0  0  0  0  0  0  0  0
    4.6864    9.6087    0.0000 F   0  0  0  0  0  0  0  0  0  0  0  0
    4.2672    7.6531    0.0000 F   0  0  0  0  0  0  0  0  0  0  0  0
    3.2604    2.3174    0.0000 F   0  0  0  0  0  0  0  0  0  0  0  0
    4.7444    0.9765    0.0000 F   0  0  0  0  0  0  0  0  0  0  0  0
   24.8688   -6.4175    0.0000 O   0  0  0  0  0  0  0  0  0  0  0  0
   27.2186   -5.3338    0.0000 O   0  0  0  0  0  0  0  0  0  0  0  0
   27.2148   -7.5093    0.0000 O   0  0  0  0  0  0  0  0  0  0  0  0
   24.1729   -4.4483    0.0000 O   0  0  0  0  0  0  0  0  0  0  0  0
   27.0130   -3.3444    0.0000 O   0  0  0  0  0  0  0  0  0  0  0  0
   28.1105   -4.2363    0.0000 O   0  0  0  0  0  0  0  0  0  0  0  0
   26.1211   -4.4419    0.0000 O   0  0  0  0  0  0  0  0  0  0  0  0
   23.5581   -2.5451    0.0000 O   0  0  0  0  0  0  0  0  0  0  0  0
   22.9139   -3.8041    0.0000 O   0  0  0  0  0  0  0  0  0  0  0  0
   24.8171   -3.1893    0.0000 O   0  0  0  0  0  0  0  0  0  0  0  0
   21.6025   -2.1259    0.0000 O   0  0  0  0  0  0  0  0  0  0  0  0
   22.7899   -1.3577    0.0000 O   0  0  0  0  0  0  0  0  0  0  0  0
   18.6692   -1.4971    0.0000 O   0  0  0  0  0  0  0  0  0  0  0  0
   22.3707   -3.3133    0.0000 O   0  0  0  0  0  0  0  0  0  0  0  0
   19.7026    0.9385    0.0000 O   0  0  0  0  0  0  0  0  0  0  0  0
   17.1323    3.2608    0.0000 O   0  0  0  0  0  0  0  0  0  0  0  0
    7.0471    6.3085    0.0000 O   0  0  0  0  0  0  0  0  0  0  0  0
   10.0361    8.3248    0.0000 O   0  0  0  0  0  0  0  0  0  0  0  0
    7.2988    2.7117    0.0000 O   0  0  0  0  0  0  0  0  0  0  0  0
   12.2434    4.3089    0.0000 O   0  0  0  0  0  0  0  0  0  0  0  0
   10.7065    9.0668    0.0000 O   0  0  0  0  0  0  0  0  0  0  0  0
    2.5212    9.0501    0.0000 O   0  0  0  0  0  0  0  0  0  0  0  0
    3.7086    9.8183    0.0000 O   0  0  0  0  0  0  0  0  0  0  0  0
    3.2894    7.8627    0.0000 O   0  0  0  0  0  0  0  0  0  0  0  0
    2.6616    0.1630    0.0000 O   0  0  0  0  0  0  0  0  0  0  0  0
    2.5900    1.5754    0.0000 O   0  0  0  0  0  0  0  0  0  0  0  0
    4.0740    0.2346    0.0000 O   0  0  0  0  0  0  0  0  0  0  0  0
   25.1446   -8.1780    0.0000 N   0  0  0  0  0  0  0  0  0  0  0  0
   25.1446   -9.7875    0.0000 N   0  0  0  0  0  0  0  0  0  0  0  0
   23.3323   -7.9828    0.0000 N   0  0  0  0  0  0  0  0  0  0  0  0
   22.4663   -9.4828    0.0000 N   0  0  0  0  0  0  0  0  0  0  0  0
   23.3323  -10.9828    0.0000 N   0  0  0  0  0  0  0  0  0  0  0  0
   18.0544    0.4061    0.0000 N   0  0  0  0  0  0  0  0  0  0  0  0
    9.6731    6.6313    0.0000 N   0  0  0  0  0  0  0  0  0  0  0  0
    8.3322    5.1473    0.0000 N   0  0  0  0  0  0  0  0  0  0  0  0
   15.4841    2.7285    0.0000 N   0  0  0  0  0  0  0  0  0  0  0  0
   11.9917    7.9056    0.0000 N   0  0  0  0  0  0  0  0  0  0  0  0
    8.9470    3.2441    0.0000 N   0  0  0  0  0  0  0  0  0  0  0  0
   26.4085   -5.9202    0.0000 C   0  0  3  0  0  0  0  0  0  0  0  0
   26.4068   -6.9202    0.0000 C   0  0  3  0  0  0  0  0  0  0  0  0
   25.4580   -5.6095    0.0000 C   0  0  3  0  0  0  0  0  0  0  0  0
   25.4552   -7.2275    0.0000 C   0  0  3  0  0  0  0  0  0  0  0  0
   25.1506   -4.6579    0.0000 C   0  0  0  0  0  0  0  0  0  0  0  0
   24.1983   -8.4828    0.0000 C   0  0  0  0  0  0  0  0  0  0  0  0
   25.7282   -8.9828    0.0000 C   0  0  0  0  0  0  0  0  0  0  0  0
   24.1983   -9.4828    0.0000 C   0  0  0  0  0  0  0  0  0  0  0  0
   23.3323   -9.9828    0.0000 C   0  0  0  0  0  0  0  0  0  0  0  0
   22.4663   -8.4828    0.0000 C   0  0  0  0  0  0  0  0  0  0  0  0
   20.3174   -0.9647    0.0000 C   0  0  0  0  0  0  0  0  0  0  0  0
   21.2952   -1.1743    0.0000 C   0  0  0  0  0  0  0  0  0  0  0  0
   19.3396   -0.7551    0.0000 C   0  0  3  0  0  0  0  0  0  0  0  0
   20.5270    0.0131    0.0000 C   0  0  0  0  0  0  0  0  0  0  0  0
   20.1078   -1.9425    0.0000 C   0  0  0  0  0  0  0  0  0  0  0  0
   19.0322    0.1965    0.0000 C   0  0  0  0  0  0  0  0  0  0  0  0
   17.7471    1.3577    0.0000 C   0  0  0  0  0  0  0  0  0  0  0  0
   16.7693    1.5673    0.0000 C   0  0  0  0  0  0  0  0  0  0  0  0
    8.6953    6.8409    0.0000 C   0  0  3  0  0  0  0  0  0  0  0  0
    8.3879    7.7924    0.0000 C   0  0  0  0  0  0  0  0  0  0  0  0
   11.3213    7.1636    0.0000 C   0  0  3  0  0  0  0  0  0  0  0  0
   16.4619    2.5189    0.0000 C   0  0  0  0  0  0  0  0  0  0  0  0
    7.6618    4.4053    0.0000 C   0  0  3  0  0  0  0  0  0  0  0  0
    8.0249    6.0989    0.0000 C   0  0  0  0  0  0  0  0  0  0  0  0
   11.6287    6.2120    0.0000 C   0  0  0  0  0  0  0  0  0  0  0  0
   10.3435    7.3732    0.0000 C   0  0  0  0  0  0  0  0  0  0  0  0
    7.4101    8.0021    0.0000 C   0  0  0  0  0  0  0  0  0  0  0  0
    6.6840    4.6149    0.0000 C   0  0  0  0  0  0  0  0  0  0  0  0
   12.6064    6.0024    0.0000 C   0  0  0  0  0  0  0  0  0  0  0  0
    6.0136    3.8729    0.0000 C   0  0  0  0  0  0  0  0  0  0  0  0
   15.1768    3.6801    0.0000 C   0  0  0  0  0  0  0  0  0  0  0  0
    6.7397    7.2601    0.0000 C   0  0  0  0  0  0  0  0  0  0  0  0
    7.1028    8.9536    0.0000 C   0  0  0  0  0  0  0  0  0  0  0  0
    7.9692    3.4537    0.0000 C   0  0  0  0  0  0  0  0  0  0  0  0
    5.4546    8.4213    0.0000 C   0  0  0  0  0  0  0  0  0  0  0  0
    5.7619    7.4697    0.0000 C   0  0  0  0  0  0  0  0  0  0  0  0
    6.1250    9.1632    0.0000 C   0  0  0  0  0  0  0  0  0  0  0  0
   14.1990    3.8897    0.0000 C   0  0  0  0  0  0  0  0  0  0  0  0
   12.9138    5.0509    0.0000 C   0  0  0  0  0  0  0  0  0  0  0  0
    4.4768    8.6309    0.0000 C   0  0  0  0  0  0  0  0  0  0  0  0
    5.0358    4.0825    0.0000 C   0  0  0  0  0  0  0  0  0  0  0  0
    6.3210    2.9213    0.0000 C   0  0  0  0  0  0  0  0  0  0  0  0
   11.6843    8.8572    0.0000 C   0  0  0  0  0  0  0  0  0  0  0  0
    4.6728    2.3890    0.0000 C   0  0  0  0  0  0  0  0  0  0  0  0
    4.3654    3.3405    0.0000 C   0  0  0  0  0  0  0  0  0  0  0  0
    5.6506    2.1793    0.0000 C   0  0  0  0  0  0  0  0  0  0  0  0
    4.0024    1.6470    0.0000 C   0  0  0  0  0  0  0  0  0  0  0  0
   12.3547    9.5992    0.0000 C   0  0  0  0  0  0  0  0  0  0  0  0
   12.0474   10.5508    0.0000 C   0  0  0  0  0  0  0  0  0  0  0  0
   13.3325    9.3896    0.0000 C   0  0  0  0  0  0  0  0  0  0  0  0
   12.7178   11.2928    0.0000 C   0  0  0  0  0  0  0  0  0  0  0  0
   14.0029   10.1316    0.0000 C   0  0  0  0  0  0  0  0  0  0  0  0
   13.6956   11.0832    0.0000 C   0  0  0  0  0  0  0  0  0  0  0  0
   26.3126   -5.3076    0.0000 H   0  0  0  0  0  0  0  0  0  0  0  0
   26.9597   -6.6396    0.0000 H   0  0  0  0  0  0  0  0  0  0  0  0
   24.8458   -5.5114    0.0000 H   0  0  0  0  0  0  0  0  0  0  0  0
   25.8929   -7.6667    0.0000 H   0  0  0  0  0  0  0  0  0  0  0  0
   25.7648   -4.5727    0.0000 H   0  0  0  0  0  0  0  0  0  0  0  0
   25.1734   -4.0383    0.0000 H   0  0  0  0  0  0  0  0  0  0  0  0
   27.7816   -7.2581    0.0000 H   0  0  0  0  0  0  0  0  0  0  0  0
   26.3482   -8.9828    0.0000 H   0  0  0  0  0  0  0  0  0  0  0  0
   27.5152   -2.9808    0.0000 H   0  0  0  0  0  0  0  0  0  0  0  0
   28.4740   -4.7385    0.0000 H   0  0  0  0  0  0  0  0  0  0  0  0
   21.9293   -8.1728    0.0000 H   0  0  0  0  0  0  0  0  0  0  0  0
   21.9093   -1.0891    0.0000 H   0  0  0  0  0  0  0  0  0  0  0  0
   21.3179   -0.5547    0.0000 H   0  0  0  0  0  0  0  0  0  0  0  0
   22.7954  -11.2928    0.0000 H   0  0  0  0  0  0  0  0  0  0  0  0
   23.8692  -11.2928    0.0000 H   0  0  0  0  0  0  0  0  0  0  0  0
   22.7839   -4.4103    0.0000 H   0  0  0  0  0  0  0  0  0  0  0  0
   19.5302   -1.3451    0.0000 H   0  0  0  0  0  0  0  0  0  0  0  0
   21.1332   -0.1169    0.0000 H   0  0  0  0  0  0  0  0  0  0  0  0
   20.6569    0.6193    0.0000 H   0  0  0  0  0  0  0  0  0  0  0  0
   19.9208    0.1430    0.0000 H   0  0  0  0  0  0  0  0  0  0  0  0
   19.5016   -1.8126    0.0000 H   0  0  0  0  0  0  0  0  0  0  0  0
   19.9778   -2.5487    0.0000 H   0  0  0  0  0  0  0  0  0  0  0  0
   20.7140   -2.0725    0.0000 H   0  0  0  0  0  0  0  0  0  0  0  0
   18.0630   -1.3671    0.0000 H   0  0  0  0  0  0  0  0  0  0  0  0
   23.3799   -1.1672    0.0000 H   0  0  0  0  0  0  0  0  0  0  0  0
   17.6388   -0.0540    0.0000 H   0  0  0  0  0  0  0  0  0  0  0  0
   18.3612    1.4429    0.0000 H   0  0  0  0  0  0  0  0  0  0  0  0
   17.7698    1.9772    0.0000 H   0  0  0  0  0  0  0  0  0  0  0  0
   16.1552    1.4820    0.0000 H   0  0  0  0  0  0  0  0  0  0  0  0
   16.7466    0.9477    0.0000 H   0  0  0  0  0  0  0  0  0  0  0  0
    9.1110    7.3009    0.0000 H   0  0  0  0  0  0  0  0  0  0  0  0
    9.0020    7.8777    0.0000 H   0  0  0  0  0  0  0  0  0  0  0  0
    8.4106    8.4120    0.0000 H   0  0  0  0  0  0  0  0  0  0  0  0
   11.1307    7.7536    0.0000 H   0  0  0  0  0  0  0  0  0  0  0  0
    9.8636    6.0413    0.0000 H   0  0  0  0  0  0  0  0  0  0  0  0
    7.4713    4.9953    0.0000 H   0  0  0  0  0  0  0  0  0  0  0  0
   11.0145    6.1268    0.0000 H   0  0  0  0  0  0  0  0  0  0  0  0
   11.6059    5.5925    0.0000 H   0  0  0  0  0  0  0  0  0  0  0  0
    6.9173    5.1894    0.0000 H   0  0  0  0  0  0  0  0  0  0  0  0
    6.1588    4.9444    0.0000 H   0  0  0  0  0  0  0  0  0  0  0  0
    8.9385    5.0173    0.0000 H   0  0  0  0  0  0  0  0  0  0  0  0
   13.2206    6.0877    0.0000 H   0  0  0  0  0  0  0  0  0  0  0  0
   12.6292    6.6220    0.0000 H   0  0  0  0  0  0  0  0  0  0  0  0
   15.0685    2.2684    0.0000 H   0  0  0  0  0  0  0  0  0  0  0  0
   12.5979    7.7757    0.0000 H   0  0  0  0  0  0  0  0  0  0  0  0
    6.9303    6.6701    0.0000 H   0  0  0  0  0  0  0  0  0  0  0  0
    7.5184    9.4137    0.0000 H   0  0  0  0  0  0  0  0  0  0  0  0
   15.7909    3.7653    0.0000 H   0  0  0  0  0  0  0  0  0  0  0  0
   15.1995    4.2996    0.0000 H   0  0  0  0  0  0  0  0  0  0  0  0
    5.3463    7.0096    0.0000 H   0  0  0  0  0  0  0  0  0  0  0  0
    5.9344    9.7532    0.0000 H   0  0  0  0  0  0  0  0  0  0  0  0
   13.5849    3.8044    0.0000 H   0  0  0  0  0  0  0  0  0  0  0  0
   14.1763    3.2701    0.0000 H   0  0  0  0  0  0  0  0  0  0  0  0
    4.8453    4.6725    0.0000 H   0  0  0  0  0  0  0  0  0  0  0  0
    6.9272    2.7914    0.0000 H   0  0  0  0  0  0  0  0  0  0  0  0
    3.7592    3.4705    0.0000 H   0  0  0  0  0  0  0  0  0  0  0  0
    5.8412    1.5894    0.0000 H   0  0  0  0  0  0  0  0  0  0  0  0
    9.1376    2.6541    0.0000 H   0  0  0  0  0  0  0  0  0  0  0  0
    9.3626    3.7041    0.0000 H   0  0  0  0  0  0  0  0  0  0  0  0
   11.4411   10.6807    0.0000 H   0  0  0  0  0  0  0  0  0  0  0  0
   13.5231    8.7996    0.0000 H   0  0  0  0  0  0  0  0  0  0  0  0
    2.3306    9.6401    0.0000 H   0  0  0  0  0  0  0  0  0  0  0  0
    3.2486   10.2339    0.0000 H   0  0  0  0  0  0  0  0  0  0  0  0
   12.5272   11.8828    0.0000 H   0  0  0  0  0  0  0  0  0  0  0  0
   14.6092   10.0016    0.0000 H   0  0  0  0  0  0  0  0  0  0  0  0
   14.1112   11.5432    0.0000 H   0  0  0  0  0  0  0  0  0  0  0  0
    2.0553    0.2929    0.0000 H   0  0  0  0  0  0  0  0  0  0  0  0
    2.0000    1.3848    0.0000 H   0  0  0  0  0  0  0  0  0  0  0  0
  1 86  1  0  0  0  0
  1 87  1  0  0  0  0
  2 12  1  0  0  0  0
  2 15  1  0  0  0  0
  2 16  1  0  0  0  0
  2 17  2  0  0  0  0
  3 14  1  0  0  0  0
  3 18  1  0  0  0  0
  3 19  1  0  0  0  0
  3 20  2  0  0  0  0
  4 18  1  0  0  0  0
  4 21  1  0  0  0  0
  4 22  1  0  0  0  0
  4 24  2  0  0  0  0
  5 32  1  0  0  0  0
  5 33  1  0  0  0  0
  5 34  2  0  0  0  0
  5 88  1  0  0  0  0
  6 35  1  0  0  0  0
  6 36  1  0  0  0  0
  6 37  2  0  0  0  0
  6 95  1  0  0  0  0
  7 88  1  0  0  0  0
  8 88  1  0  0  0  0
  9 95  1  0  0  0  0
 10 95  1  0  0  0  0
 11 51  1  0  0  0  0
 11 52  1  0  0  0  0
 12 49  1  0  0  0  0
 13 50  1  0  0  0  0
 13108  1  0  0  0  0
 14 53  1  0  0  0  0
 15110  1  0  0  0  0
 16111  1  0  0  0  0
 19117  1  0  0  0  0
 21 60  1  0  0  0  0
 22126  1  0  0  0  0
 23 61  1  0  0  0  0
 23125  1  0  0  0  0
 25 64  2  0  0  0  0
 26 70  2  0  0  0  0
 27 72  2  0  0  0  0
 28 74  2  0  0  0  0
 29 82  2  0  0  0  0
 30 87  2  0  0  0  0
 31 91  2  0  0  0  0
 32163  1  0  0  0  0
 33164  1  0  0  0  0
 35168  1  0  0  0  0
 36169  1  0  0  0  0
 38 52  1  0  0  0  0
 38 54  1  0  0  0  0
 38 55  1  0  0  0  0
 39 55  2  0  0  0  0
 39 56  1  0  0  0  0
 40 54  2  0  0  0  0
 40 58  1  0  0  0  0
 41 57  1  0  0  0  0
 41 58  2  0  0  0  0
 42 57  1  0  0  0  0
 42115  1  0  0  0  0
 42116  1  0  0  0  0
 43 64  1  0  0  0  0
 43 65  1  0  0  0  0
 43127  1  0  0  0  0
 44 67  1  0  0  0  0
 44 74  1  0  0  0  0
 44136  1  0  0  0  0
 45 71  1  0  0  0  0
 45 72  1  0  0  0  0
 45142  1  0  0  0  0
 46 70  1  0  0  0  0
 46 79  1  0  0  0  0
 46145  1  0  0  0  0
 47 69  1  0  0  0  0
 47 91  1  0  0  0  0
 47146  1  0  0  0  0
 48 82  1  0  0  0  0
 48159  1  0  0  0  0
 48160  1  0  0  0  0
 49 50  1  0  0  0  0
 49 51  1  0  0  0  0
 49102  1  0  0  0  0
 50 52  1  0  0  0  0
 50103  1  0  0  0  0
 51 53  1  0  0  0  0
 51104  1  0  0  0  0
 52105  1  0  0  0  0
 53106  1  0  0  0  0
 53107  1  0  0  0  0
 54 56  1  0  0  0  0
 55109  1  0  0  0  0
 56 57  2  0  0  0  0
 58112  1  0  0  0  0
 59 60  1  0  0  0  0
 59 61  1  0  0  0  0
 59 62  1  0  0  0  0
 59 63  1  0  0  0  0
 60113  1  0  0  0  0
 60114  1  0  0  0  0
 61 64  1  0  0  0  0
 61118  1  0  0  0  0
 62119  1  0  0  0  0
 62120  1  0  0  0  0
 62121  1  0  0  0  0
 63122  1  0  0  0  0
 63123  1  0  0  0  0
 63124  1  0  0  0  0
 65 66  1  0  0  0  0
 65128  1  0  0  0  0
 65129  1  0  0  0  0
 66 70  1  0  0  0  0
 66130  1  0  0  0  0
 66131  1  0  0  0  0
 67 68  1  0  0  0  0
 67 72  1  0  0  0  0
 67132  1  0  0  0  0
 68 75  1  0  0  0  0
 68133  1  0  0  0  0
 68134  1  0  0  0  0
 69 73  1  0  0  0  0
 69 74  1  0  0  0  0
 69135  1  0  0  0  0
 71 76  1  0  0  0  0
 71 82  1  0  0  0  0
 71137  1  0  0  0  0
 73 77  1  0  0  0  0
 73138  1  0  0  0  0
 73139  1  0  0  0  0
 75 80  2  0  0  0  0
 75 81  1  0  0  0  0
 76 78  1  0  0  0  0
 76140  1  0  0  0  0
 76141  1  0  0  0  0
 77 87  1  0  0  0  0
 77143  1  0  0  0  0
 77144  1  0  0  0  0
 78 89  2  0  0  0  0
 78 90  1  0  0  0  0
 79 86  1  0  0  0  0
 79149  1  0  0  0  0
 79150  1  0  0  0  0
 80 84  1  0  0  0  0
 80147  1  0  0  0  0
 81 85  2  0  0  0  0
 81148  1  0  0  0  0
 83 84  2  0  0  0  0
 83 85  1  0  0  0  0
 83 88  1  0  0  0  0
 84151  1  0  0  0  0
 85152  1  0  0  0  0
 86153  1  0  0  0  0
 86154  1  0  0  0  0
 89 93  1  0  0  0  0
 89155  1  0  0  0  0
 90 94  2  0  0  0  0
 90156  1  0  0  0  0
 91 96  1  0  0  0  0
 92 93  2  0  0  0  0
 92 94  1  0  0  0  0
 92 95  1  0  0  0  0
 93157  1  0  0  0  0
 94158  1  0  0  0  0
 96 97  2  0  0  0  0
 96 98  1  0  0  0  0
 97 99  1  0  0  0  0
 97161  1  0  0  0  0
 98100  2  0  0  0  0
 98162  1  0  0  0  0
 99101  2  0  0  0  0
 99165  1  0  0  0  0
100101  1  0  0  0  0
100166  1  0  0  0  0
101167  1  0  0  0  0
M  END
> <PUBCHEM_COMPOUND_CID>
155488820

> <PUBCHEM_COMPOUND_CANONICALIZED>
1

> <PUBCHEM_CACTVS_COMPLEXITY>
3130

> <PUBCHEM_CACTVS_HBOND_ACCEPTOR>
36

> <PUBCHEM_CACTVS_HBOND_DONOR>
17

> <PUBCHEM_CACTVS_ROTATABLE_BOND>
38

> <PUBCHEM_CACTVS_SUBSKEYS>
AAADcfB//8PAAAAAAAAAAAAAAAAAAWJAAAA8YMEAAAAAAFgB/AAAHwwQCCAADjzl3xa38L/MFxioQydzdIKCgC01ELAJ2KHoVNiLeDrg3XGeZQhvlgL7iaf+u8KPQAAAAAAAAACAAAAAAAAAAAAAAAAAAA==

> <PUBCHEM_IUPAC_OPENEYE_NAME>
[[4-[3-amino-2-[[2-[[5-[2-[3-[[4-[[[5-(6-aminopurin-9-yl)-4-hydroxy-3-phosphonooxy-tetrahydrofuran-2-yl]methoxy-hydroxy-phosphoryl]oxy-hydroxy-phosphoryl]oxy-2-hydroxy-3,3-dimethyl-butanoyl]amino]propanoylamino]ethylsulfanyl]-2-benzamido-5-oxo-pentanoyl]amino]-3-[4-[difluoro(phosphono)methyl]phenyl]propanoyl]amino]-3-oxo-propyl]phenyl]-difluoro-methyl]phosphonic acid

> <PUBCHEM_IUPAC_CAS_NAME>
[[4-[3-amino-2-[[2-[[5-[2-[[3-[[4-[[[5-(6-aminopurin-9-yl)-4-hydroxy-3-phosphonooxy-2-oxolanyl]methoxy-hydroxyphosphoryl]oxy-hydroxyphosphoryl]oxy-2-hydroxy-3,3-dimethyl-1-oxobutyl]amino]-1-oxopropyl]amino]ethylthio]-2-benzamido-1,5-dioxopentyl]amino]-3-[4-[difluoro(phosphono)methyl]phenyl]-1-oxopropyl]amino]-3-oxopropyl]phenyl]-difluoromethyl]phosphonic acid

> <PUBCHEM_IUPAC_NAME_MARKUP>
[[4-[3-amino-2-[[2-[[5-[2-[3-[[4-[[[5-(6-aminopurin-9-yl)-4-hydroxy-3-phosphonooxyoxolan-2-yl]methoxy-hydroxyphosphoryl]oxy-hydroxyphosphoryl]oxy-2-hydroxy-3,3-dimethylbutanoyl]amino]propanoylamino]ethylsulfanyl]-2-benzamido-5-oxopentanoyl]amino]-3-[4-[difluoro(phosphono)methyl]phenyl]propanoyl]amino]-3-oxopropyl]phenyl]-difluoromethyl]phosphonic acid

> <PUBCHEM_IUPAC_NAME>
[[4-[3-amino-2-[[2-[[5-[2-[3-[[4-[[[5-(6-aminopurin-9-yl)-4-hydroxy-3-phosphonooxyoxolan-2-yl]methoxy-hydroxyphosphoryl]oxy-hydroxyphosphoryl]oxy-2-hydroxy-3,3-dimethylbutanoyl]amino]propanoylamino]ethylsulfanyl]-2-benzamido-5-oxopentanoyl]amino]-3-[4-[difluoro(phosphono)methyl]phenyl]propanoyl]amino]-3-oxopropyl]phenyl]-difluoromethyl]phosphonic acid

> <PUBCHEM_IUPAC_SYSTEMATIC_NAME>
[[4-[2-[[5-[2-[3-[[4-[[[5-(6-aminopurin-9-yl)-4-oxidanyl-3-phosphonooxy-oxolan-2-yl]methoxy-oxidanyl-phosphoryl]oxy-oxidanyl-phosphoryl]oxy-3,3-dimethyl-2-oxidanyl-butanoyl]amino]propanoylamino]ethylsulfanyl]-2-benzamido-5-oxidanylidene-pentanoyl]amino]-3-[[1-azanyl-3-[4-[bis(fluoranyl)-phosphono-methyl]phenyl]-1-oxidanylidene-propan-2-yl]amino]-3-oxidanylidene-propyl]phenyl]-bis(fluoranyl)methyl]phosphonic acid

> <PUBCHEM_IUPAC_TRADITIONAL_NAME>
[[4-[2-[[5-[2-[3-[[4-[[(5-adenin-9-yl-4-hydroxy-3-phosphonooxy-tetrahydrofuran-2-yl)methoxy-hydroxy-phosphoryl]oxy-hydroxy-phosphoryl]oxy-2-hydroxy-3,3-dimethyl-butanoyl]amino]propanoylamino]ethylthio]-2-benzamido-5-keto-pentanoyl]amino]-3-[[2-amino-1-[4-[difluoro(phosphono)methyl]benzyl]-2-keto-ethyl]amino]-3-keto-propyl]phenyl]-difluoro-methyl]phosphonic acid

> <PUBCHEM_IUPAC_INCHI>
InChI=1S/C53H68F4N11O27P5S/c1-51(2,25-92-100(89,90)95-99(87,88)91-24-36-41(94-98(84,85)86)40(71)50(93-36)68-27-64-39-43(58)62-26-63-45(39)68)42(72)49(77)61-19-18-37(69)60-20-21-101-38(70)17-16-33(65-46(74)30-6-4-3-5-7-30)47(75)67-35(23-29-10-14-32(15-11-29)53(56,57)97(81,82)83)48(76)66-34(44(59)73)22-28-8-12-31(13-9-28)52(54,55)96(78,79)80/h3-15,26-27,33-36,40-42,50,71-72H,16-25H2,1-2H3,(H2,59,73)(H,60,69)(H,61,77)(H,65,74)(H,66,76)(H,67,75)(H,87,88)(H,89,90)(H2,58,62,63)(H2,78,79,80)(H2,81,82,83)(H2,84,85,86)

> <PUBCHEM_IUPAC_INCHIKEY>
CNFQXYKSEWVBSJ-UHFFFAOYSA-N

> <PUBCHEM_XLOGP3_AA>
-5.3

> <PUBCHEM_EXACT_MASS>
1553.2631047

> <PUBCHEM_MOLECULAR_FORMULA>
C53H68F4N11O27P5S

> <PUBCHEM_MOLECULAR_WEIGHT>
1554.1

> <PUBCHEM_OPENEYE_CAN_SMILES>
CC(C)(COP(=O)(O)OP(=O)(O)OCC1C(C(C(O1)N2C=NC3=C(N=CN=C32)N)O)OP(=O)(O)O)C(C(=O)NCCC(=O)NCCSC(=O)CCC(C(=O)NC(CC4=CC=C(C=C4)C(F)(F)P(=O)(O)O)C(=O)NC(CC5=CC=C(C=C5)C(F)(F)P(=O)(O)O)C(=O)N)NC(=O)C6=CC=CC=C6)O

> <PUBCHEM_OPENEYE_ISO_SMILES>
CC(C)(COP(=O)(O)OP(=O)(O)OCC1C(C(C(O1)N2C=NC3=C(N=CN=C32)N)O)OP(=O)(O)O)C(C(=O)NCCC(=O)NCCSC(=O)CCC(C(=O)NC(CC4=CC=C(C=C4)C(F)(F)P(=O)(O)O)C(=O)NC(CC5=CC=C(C=C5)C(F)(F)P(=O)(O)O)C(=O)N)NC(=O)C6=CC=CC=C6)O

> <PUBCHEM_CACTVS_TPSA>
634

> <PUBCHEM_MONOISOTOPIC_WEIGHT>
1553.2631047

> <PUBCHEM_TOTAL_CHARGE>
0

> <PUBCHEM_HEAVY_ATOM_COUNT>
101

> <PUBCHEM_ATOM_DEF_STEREO_COUNT>
0

> <PUBCHEM_ATOM_UDEF_STEREO_COUNT>
8

> <PUBCHEM_BOND_DEF_STEREO_COUNT>
0

> <PUBCHEM_BOND_UDEF_STEREO_COUNT>
0

> <PUBCHEM_ISOTOPIC_ATOM_COUNT>
0

> <PUBCHEM_COMPONENT_COUNT>
1

> <PUBCHEM_CACTVS_TAUTO_COUNT>
-1

> <PUBCHEM_COORDINATE_TYPE>
1
5
255

> <PUBCHEM_BONDANNOTATIONS>
100  101  8
49  12  3
50  13  3
61  23  3
52  38  3
38  54  8
38  55  8
39  55  8
39  56  8
40  54  8
40  58  8
41  57  8
41  58  8
51  53  3
54  56  8
56  57  8
67  68  3
69  73  3
71  76  3
75  80  8
75  81  8
78  89  8
78  90  8
80  84  8
81  85  8
83  84  8
83  85  8
89  93  8
90  94  8
92  93  8
92  94  8
96  97  8
96  98  8
97  99  8
98  100  8
99  101  8

$$$$
155488823
  -OEChem-03012215082D

127131  0     1  0  0  0  0  0999 V2000
    7.5871    6.5402    0.0000 S   0  0  0  0  0  0  0  0  0  0  0  0
    8.8694    3.7610    0.0000 S   0  0  0  0  0  0  0  0  0  0  0  0
   22.0936   -5.4194    0.0000 P   0  0  0  0  0  0  0  0  0  0  0  0
   18.8433   -4.5770    0.0000 P   0  0  3  0  0  0  0  0  0  0  0  0
   17.5582   -3.4158    0.0000 P   0  0  3  0  0  0  0  0  0  0  0  0
   19.8467   -7.4978    0.0000 O   0  0  0  0  0  0  0  0  0  0  0  0
   22.1964   -6.4141    0.0000 O   0  0  0  0  0  0  0  0  0  0  0  0
   22.1926   -8.5896    0.0000 O   0  0  0  0  0  0  0  0  0  0  0  0
   19.1507   -5.5286    0.0000 O   0  0  0  0  0  0  0  0  0  0  0  0
    7.2212    3.2286    0.0000 O   0  0  0  0  0  0  0  0  0  0  0  0
   21.9908   -4.4247    0.0000 O   0  0  0  0  0  0  0  0  0  0  0  0
   23.0883   -5.3166    0.0000 O   0  0  0  0  0  0  0  0  0  0  0  0
   18.5360   -3.6254    0.0000 O   0  0  0  0  0  0  0  0  0  0  0  0
   21.0989   -5.5222    0.0000 O   0  0  0  0  0  0  0  0  0  0  0  0
    4.1052    7.0060    0.0000 O   0  0  0  0  0  0  0  0  0  0  0  0
   17.8917   -4.8844    0.0000 O   0  0  0  0  0  0  0  0  0  0  0  0
   16.5804   -3.2062    0.0000 O   0  0  0  0  0  0  0  0  0  0  0  0
    4.2115    8.0004    0.0000 O   0  0  0  0  0  0  0  0  0  0  0  0
   19.7949   -4.2696    0.0000 O   0  0  0  0  0  0  0  0  0  0  0  0
   13.6470   -2.5774    0.0000 O   0  0  0  0  0  0  0  0  0  0  0  0
   17.7678   -2.4380    0.0000 O   0  0  0  0  0  0  0  0  0  0  0  0
   17.3486   -4.3936    0.0000 O   0  0  0  0  0  0  0  0  0  0  0  0
   14.6805   -0.1418    0.0000 O   0  0  0  0  0  0  0  0  0  0  0  0
   12.1102    2.1806    0.0000 O   0  0  0  0  0  0  0  0  0  0  0  0
    2.0000   11.7566    0.0000 O   0  0  0  0  0  0  0  0  0  0  0  0
    6.6338    5.2328    0.0000 N   0  0  0  0  0  0  0  0  0  0  0  0
   20.1224   -9.2584    0.0000 N   0  0  0  0  0  0  0  0  0  0  0  0
    5.9337    7.8163    0.0000 N   0  0  0  0  0  0  0  0  0  0  0  0
   20.1224  -10.8678    0.0000 N   0  0  0  0  0  0  0  0  0  0  0  0
   18.3101   -9.0631    0.0000 N   0  0  0  0  0  0  0  0  0  0  0  0
   17.4441  -10.5631    0.0000 N   0  0  0  0  0  0  0  0  0  0  0  0
   18.3101  -12.0631    0.0000 N   0  0  0  0  0  0  0  0  0  0  0  0
    6.1462    9.8050    0.0000 N   0  0  0  0  0  0  0  0  0  0  0  0
   10.4620    1.6482    0.0000 N   0  0  0  0  0  0  0  0  0  0  0  0
   13.0323   -0.6742    0.0000 N   0  0  0  0  0  0  0  0  0  0  0  0
   21.3864   -7.0005    0.0000 C   0  0  3  0  0  0  0  0  0  0  0  0
    8.1735    5.7301    0.0000 C   0  0  0  0  0  0  0  0  0  0  0  0
   21.3846   -8.0005    0.0000 C   0  0  3  0  0  0  0  0  0  0  0  0
   20.4359   -6.6898    0.0000 C   0  0  3  0  0  0  0  0  0  0  0  0
   20.4331   -8.3078    0.0000 C   0  0  3  0  0  0  0  0  0  0  0  0
    7.5843    4.9221    0.0000 C   0  0  3  0  0  0  0  0  0  0  0  0
    6.6355    6.2328    0.0000 C   0  0  3  0  0  0  0  0  0  0  0  0
   20.1285   -5.7382    0.0000 C   0  0  0  0  0  0  0  0  0  0  0  0
    5.8275    6.8220    0.0000 C   0  0  3  0  0  0  0  0  0  0  0  0
    8.9835    6.3165    0.0000 C   0  0  0  0  0  0  0  0  0  0  0  0
    8.9815    5.1410    0.0000 C   0  0  0  0  0  0  0  0  0  0  0  0
    7.8916    3.9706    0.0000 C   0  0  0  0  0  0  0  0  0  0  0  0
   19.1762   -9.5631    0.0000 C   0  0  0  0  0  0  0  0  0  0  0  0
   20.7060  -10.0631    0.0000 C   0  0  0  0  0  0  0  0  0  0  0  0
    4.9132    6.4168    0.0000 C   0  0  0  0  0  0  0  0  0  0  0  0
   19.1762  -10.5631    0.0000 C   0  0  0  0  0  0  0  0  0  0  0  0
    5.1258    8.4055    0.0000 C   0  0  0  0  0  0  0  0  0  0  0  0
   15.2952   -2.0450    0.0000 C   0  0  0  0  0  0  0  0  0  0  0  0
    9.1768    2.8094    0.0000 C   0  0  0  0  0  0  0  0  0  0  0  0
   18.3101  -11.0631    0.0000 C   0  0  0  0  0  0  0  0  0  0  0  0
    5.2320    9.3998    0.0000 C   0  0  3  0  0  0  0  0  0  0  0  0
   14.3174   -1.8354    0.0000 C   0  0  3  0  0  0  0  0  0  0  0  0
   16.2730   -2.2546    0.0000 C   0  0  0  0  0  0  0  0  0  0  0  0
   10.1546    2.5998    0.0000 C   0  0  0  0  0  0  0  0  0  0  0  0
   17.4441   -9.5631    0.0000 C   0  0  0  0  0  0  0  0  0  0  0  0
   15.5048   -1.0672    0.0000 C   0  0  0  0  0  0  0  0  0  0  0  0
   15.0856   -3.0228    0.0000 C   0  0  0  0  0  0  0  0  0  0  0  0
    4.4240    9.9890    0.0000 C   0  0  0  0  0  0  0  0  0  0  0  0
   14.0101   -0.8838    0.0000 C   0  0  0  0  0  0  0  0  0  0  0  0
   12.7249    0.2774    0.0000 C   0  0  0  0  0  0  0  0  0  0  0  0
    3.5098    9.5839    0.0000 C   0  0  0  0  0  0  0  0  0  0  0  0
    4.5302   10.9834    0.0000 C   0  0  0  0  0  0  0  0  0  0  0  0
   11.7471    0.4870    0.0000 C   0  0  0  0  0  0  0  0  0  0  0  0
   11.4398    1.4386    0.0000 C   0  0  0  0  0  0  0  0  0  0  0  0
    2.7018   10.1731    0.0000 C   0  0  0  0  0  0  0  0  0  0  0  0
    3.7222   11.5726    0.0000 C   0  0  0  0  0  0  0  0  0  0  0  0
    2.8080   11.1674    0.0000 C   0  0  0  0  0  0  0  0  0  0  0  0
   21.2904   -6.3879    0.0000 H   0  0  0  0  0  0  0  0  0  0  0  0
   21.2866   -8.6126    0.0000 H   0  0  0  0  0  0  0  0  0  0  0  0
   19.8237   -6.5918    0.0000 H   0  0  0  0  0  0  0  0  0  0  0  0
   19.8205   -8.4038    0.0000 H   0  0  0  0  0  0  0  0  0  0  0  0
    7.1451    4.4845    0.0000 H   0  0  0  0  0  0  0  0  0  0  0  0
    6.0826    5.9523    0.0000 H   0  0  0  0  0  0  0  0  0  0  0  0
    6.1315    4.8692    0.0000 H   0  0  0  0  0  0  0  0  0  0  0  0
   20.7426   -5.6530    0.0000 H   0  0  0  0  0  0  0  0  0  0  0  0
   20.1512   -5.1186    0.0000 H   0  0  0  0  0  0  0  0  0  0  0  0
    5.3265    7.1873    0.0000 H   0  0  0  0  0  0  0  0  0  0  0  0
    9.3471    5.8143    0.0000 H   0  0  0  0  0  0  0  0  0  0  0  0
    9.4857    6.6801    0.0000 H   0  0  0  0  0  0  0  0  0  0  0  0
    8.6199    6.8188    0.0000 H   0  0  0  0  0  0  0  0  0  0  0  0
    8.6162    4.6400    0.0000 H   0  0  0  0  0  0  0  0  0  0  0  0
    9.4824    4.7757    0.0000 H   0  0  0  0  0  0  0  0  0  0  0  0
    9.3468    5.6419    0.0000 H   0  0  0  0  0  0  0  0  0  0  0  0
   22.7595   -8.3384    0.0000 H   0  0  0  0  0  0  0  0  0  0  0  0
   21.3260  -10.0631    0.0000 H   0  0  0  0  0  0  0  0  0  0  0  0
    6.5006    8.0675    0.0000 H   0  0  0  0  0  0  0  0  0  0  0  0
    4.8474    5.8003    0.0000 H   0  0  0  0  0  0  0  0  0  0  0  0
    8.5627    2.7241    0.0000 H   0  0  0  0  0  0  0  0  0  0  0  0
    9.1541    2.1898    0.0000 H   0  0  0  0  0  0  0  0  0  0  0  0
    5.7330    9.0346    0.0000 H   0  0  0  0  0  0  0  0  0  0  0  0
   13.7112   -1.7055    0.0000 H   0  0  0  0  0  0  0  0  0  0  0  0
   16.8871   -2.1694    0.0000 H   0  0  0  0  0  0  0  0  0  0  0  0
   16.2957   -1.6350    0.0000 H   0  0  0  0  0  0  0  0  0  0  0  0
   22.4930   -4.0611    0.0000 H   0  0  0  0  0  0  0  0  0  0  0  0
   23.4519   -5.8188    0.0000 H   0  0  0  0  0  0  0  0  0  0  0  0
   10.7687    2.6850    0.0000 H   0  0  0  0  0  0  0  0  0  0  0  0
   10.1773    3.2193    0.0000 H   0  0  0  0  0  0  0  0  0  0  0  0
   16.9072   -9.2531    0.0000 H   0  0  0  0  0  0  0  0  0  0  0  0
   16.1111   -1.1972    0.0000 H   0  0  0  0  0  0  0  0  0  0  0  0
   15.6348   -0.4610    0.0000 H   0  0  0  0  0  0  0  0  0  0  0  0
   14.8986   -0.9373    0.0000 H   0  0  0  0  0  0  0  0  0  0  0  0
   14.4794   -2.8928    0.0000 H   0  0  0  0  0  0  0  0  0  0  0  0
   14.9557   -3.6290    0.0000 H   0  0  0  0  0  0  0  0  0  0  0  0
   15.6918   -3.1528    0.0000 H   0  0  0  0  0  0  0  0  0  0  0  0
   17.7618   -5.4906    0.0000 H   0  0  0  0  0  0  0  0  0  0  0  0
   17.7732  -12.3731    0.0000 H   0  0  0  0  0  0  0  0  0  0  0  0
   18.8471  -12.3731    0.0000 H   0  0  0  0  0  0  0  0  0  0  0  0
    6.2121   10.4215    0.0000 H   0  0  0  0  0  0  0  0  0  0  0  0
    6.6472    9.4397    0.0000 H   0  0  0  0  0  0  0  0  0  0  0  0
   10.0463    1.1881    0.0000 H   0  0  0  0  0  0  0  0  0  0  0  0
   12.6166   -1.1342    0.0000 H   0  0  0  0  0  0  0  0  0  0  0  0
   13.0408   -2.4474    0.0000 H   0  0  0  0  0  0  0  0  0  0  0  0
   13.3390    0.3626    0.0000 H   0  0  0  0  0  0  0  0  0  0  0  0
   12.7476    0.8970    0.0000 H   0  0  0  0  0  0  0  0  0  0  0  0
    3.4439    8.9674    0.0000 H   0  0  0  0  0  0  0  0  0  0  0  0
    5.0971   11.2346    0.0000 H   0  0  0  0  0  0  0  0  0  0  0  0
   11.1330    0.4017    0.0000 H   0  0  0  0  0  0  0  0  0  0  0  0
   11.7244   -0.1326    0.0000 H   0  0  0  0  0  0  0  0  0  0  0  0
   18.3578   -2.2475    0.0000 H   0  0  0  0  0  0  0  0  0  0  0  0
    2.1349    9.9219    0.0000 H   0  0  0  0  0  0  0  0  0  0  0  0
    3.7881   12.1891    0.0000 H   0  0  0  0  0  0  0  0  0  0  0  0
    2.0659   12.3731    0.0000 H   0  0  0  0  0  0  0  0  0  0  0  0
  1 37  1  0  0  0  0
  1 42  1  0  0  0  0
  2 47  1  0  0  0  0
  2 54  1  0  0  0  0
  3  7  1  0  0  0  0
  3 11  1  0  0  0  0
  3 12  1  0  0  0  0
  3 14  2  0  0  0  0
  4  9  1  0  0  0  0
  4 13  1  0  0  0  0
  4 16  1  0  0  0  0
  4 19  2  0  0  0  0
  5 13  1  0  0  0  0
  5 17  1  0  0  0  0
  5 21  1  0  0  0  0
  5 22  2  0  0  0  0
  6 39  1  0  0  0  0
  6 40  1  0  0  0  0
  7 36  1  0  0  0  0
  8 38  1  0  0  0  0
  8 89  1  0  0  0  0
  9 43  1  0  0  0  0
 10 47  2  0  0  0  0
 11 99  1  0  0  0  0
 12100  1  0  0  0  0
 15 50  2  0  0  0  0
 16110  1  0  0  0  0
 17 58  1  0  0  0  0
 18 52  2  0  0  0  0
 20 57  1  0  0  0  0
 20117  1  0  0  0  0
 21124  1  0  0  0  0
 23 64  2  0  0  0  0
 24 69  2  0  0  0  0
 25 72  1  0  0  0  0
 25127  1  0  0  0  0
 26 41  1  0  0  0  0
 26 42  1  0  0  0  0
 26 79  1  0  0  0  0
 27 40  1  0  0  0  0
 27 48  1  0  0  0  0
 27 49  1  0  0  0  0
 28 44  1  0  0  0  0
 28 52  1  0  0  0  0
 28 91  1  0  0  0  0
 29 49  2  0  0  0  0
 29 51  1  0  0  0  0
 30 48  2  0  0  0  0
 30 60  1  0  0  0  0
 31 55  1  0  0  0  0
 31 60  2  0  0  0  0
 32 55  1  0  0  0  0
 32111  1  0  0  0  0
 32112  1  0  0  0  0
 33 56  1  0  0  0  0
 33113  1  0  0  0  0
 33114  1  0  0  0  0
 34 59  1  0  0  0  0
 34 69  1  0  0  0  0
 34115  1  0  0  0  0
 35 64  1  0  0  0  0
 35 65  1  0  0  0  0
 35116  1  0  0  0  0
 36 38  1  0  0  0  0
 36 39  1  0  0  0  0
 36 73  1  0  0  0  0
 37 41  1  0  0  0  0
 37 45  1  0  0  0  0
 37 46  1  0  0  0  0
 38 40  1  0  0  0  0
 38 74  1  0  0  0  0
 39 43  1  0  0  0  0
 39 75  1  0  0  0  0
 40 76  1  0  0  0  0
 41 47  1  0  0  0  0
 41 77  1  0  0  0  0
 42 44  1  0  0  0  0
 42 78  1  0  0  0  0
 43 80  1  0  0  0  0
 43 81  1  0  0  0  0
 44 50  1  0  0  0  0
 44 82  1  0  0  0  0
 45 83  1  0  0  0  0
 45 84  1  0  0  0  0
 45 85  1  0  0  0  0
 46 86  1  0  0  0  0
 46 87  1  0  0  0  0
 46 88  1  0  0  0  0
 48 51  1  0  0  0  0
 49 90  1  0  0  0  0
 50 92  1  0  0  0  0
 51 55  2  0  0  0  0
 52 56  1  0  0  0  0
 53 57  1  0  0  0  0
 53 58  1  0  0  0  0
 53 61  1  0  0  0  0
 53 62  1  0  0  0  0
 54 59  1  0  0  0  0
 54 93  1  0  0  0  0
 54 94  1  0  0  0  0
 56 63  1  0  0  0  0
 56 95  1  0  0  0  0
 57 64  1  0  0  0  0
 57 96  1  0  0  0  0
 58 97  1  0  0  0  0
 58 98  1  0  0  0  0
 59101  1  0  0  0  0
 59102  1  0  0  0  0
 60103  1  0  0  0  0
 61104  1  0  0  0  0
 61105  1  0  0  0  0
 61106  1  0  0  0  0
 62107  1  0  0  0  0
 62108  1  0  0  0  0
 62109  1  0  0  0  0
 63 66  2  0  0  0  0
 63 67  1  0  0  0  0
 65 68  1  0  0  0  0
 65118  1  0  0  0  0
 65119  1  0  0  0  0
 66 70  1  0  0  0  0
 66120  1  0  0  0  0
 67 71  2  0  0  0  0
 67121  1  0  0  0  0
 68 69  1  0  0  0  0
 68122  1  0  0  0  0
 68123  1  0  0  0  0
 70 72  2  0  0  0  0
 70125  1  0  0  0  0
 71 72  1  0  0  0  0
 71126  1  0  0  0  0
M  END
> <PUBCHEM_COMPOUND_CID>
155488823

> <PUBCHEM_COMPOUND_CANONICALIZED>
1

> <PUBCHEM_CACTVS_COMPLEXITY>
2060

> <PUBCHEM_CACTVS_HBOND_ACCEPTOR>
28

> <PUBCHEM_CACTVS_HBOND_DONOR>
13

> <PUBCHEM_CACTVS_ROTATABLE_BOND>
26

> <PUBCHEM_CACTVS_SUBSKEYS>
AAADcfB//gNgAAAAAAAAAAAAAAAAAWLEgAA8QAAAAAAAAFgB/AAAHgQQCCAADjzl3wa39r/MFxioQy9z9IKCgC1xMLAJ2KHuXJiLfjri3XOedAhv1hP7mCf6+IOPIAAAAAAAAABAAAAAAAAAAAAAAAAAAA==

> <PUBCHEM_IUPAC_OPENEYE_NAME>
S-[2-[3-[[4-[[[5-(6-aminopurin-9-yl)-4-hydroxy-3-phosphonooxy-tetrahydrofuran-2-yl]methoxy-hydroxy-phosphoryl]oxy-hydroxy-phosphoryl]oxy-2-hydroxy-3,3-dimethyl-butanoyl]amino]propanoylamino]ethyl] 2-[1-[[2-amino-2-(4-hydroxyphenyl)acetyl]amino]-2-oxo-ethyl]-5,5-dimethyl-thiazolidine-4-carbothioate

> <PUBCHEM_IUPAC_CAS_NAME>
2-[1-[[2-amino-2-(4-hydroxyphenyl)-1-oxoethyl]amino]-2-oxoethyl]-5,5-dimethyl-4-thiazolidinecarbothioic acid S-[2-[[3-[[4-[[[5-(6-aminopurin-9-yl)-4-hydroxy-3-phosphonooxy-2-oxolanyl]methoxy-hydroxyphosphoryl]oxy-hydroxyphosphoryl]oxy-2-hydroxy-3,3-dimethyl-1-oxobutyl]amino]-1-oxopropyl]amino]ethyl] ester

> <PUBCHEM_IUPAC_NAME_MARKUP>
<I>S</I>-[2-[3-[[4-[[[5-(6-aminopurin-9-yl)-4-hydroxy-3-phosphonooxyoxolan-2-yl]methoxy-hydroxyphosphoryl]oxy-hydroxyphosphoryl]oxy-2-hydroxy-3,3-dimethylbutanoyl]amino]propanoylamino]ethyl] 2-[1-[[2-amino-2-(4-hydroxyphenyl)acetyl]amino]-2-oxoethyl]-5,5-dimethyl-1,3-thiazolidine-4-carbothioate

> <PUBCHEM_IUPAC_NAME>
S-[2-[3-[[4-[[[5-(6-aminopurin-9-yl)-4-hydroxy-3-phosphonooxyoxolan-2-yl]methoxy-hydroxyphosphoryl]oxy-hydroxyphosphoryl]oxy-2-hydroxy-3,3-dimethylbutanoyl]amino]propanoylamino]ethyl] 2-[1-[[2-amino-2-(4-hydroxyphenyl)acetyl]amino]-2-oxoethyl]-5,5-dimethyl-1,3-thiazolidine-4-carbothioate

> <PUBCHEM_IUPAC_SYSTEMATIC_NAME>
S-[2-[3-[[4-[[[5-(6-aminopurin-9-yl)-4-oxidanyl-3-phosphonooxy-oxolan-2-yl]methoxy-oxidanyl-phosphoryl]oxy-oxidanyl-phosphoryl]oxy-3,3-dimethyl-2-oxidanyl-butanoyl]amino]propanoylamino]ethyl] 2-[1-[[2-azanyl-2-(4-hydroxyphenyl)ethanoyl]amino]-2-oxidanylidene-ethyl]-5,5-dimethyl-1,3-thiazolidine-4-carbothioate

> <PUBCHEM_IUPAC_TRADITIONAL_NAME>
2-[1-[[2-amino-2-(4-hydroxyphenyl)acetyl]amino]-2-keto-ethyl]-5,5-dimethyl-thiazolidine-4-carbothioic acid S-[2-[3-[[4-[[(5-adenin-9-yl-4-hydroxy-3-phosphonooxy-tetrahydrofuran-2-yl)methoxy-hydroxy-phosphoryl]oxy-hydroxy-phosphoryl]oxy-2-hydroxy-3,3-dimethyl-butanoyl]amino]propanoylamino]ethyl] ester

> <PUBCHEM_IUPAC_INCHI>
InChI=1S/C37H55N10O20P3S2/c1-36(2,15-64-70(61,62)67-69(59,60)63-14-21-26(66-68(56,57)58)25(51)34(65-21)47-17-44-24-29(39)42-16-43-30(24)47)28(52)32(54)41-10-9-22(50)40-11-12-71-35(55)27-37(3,4)72-33(46-27)20(13-48)45-31(53)23(38)18-5-7-19(49)8-6-18/h5-8,13,16-17,20-21,23,25-28,33-34,46,49,51-52H,9-12,14-15,38H2,1-4H3,(H,40,50)(H,41,54)(H,45,53)(H,59,60)(H,61,62)(H2,39,42,43)(H2,56,57,58)

> <PUBCHEM_IUPAC_INCHIKEY>
CNVRRCJSXYCXGT-UHFFFAOYSA-N

> <PUBCHEM_XLOGP3_AA>
-10.1

> <PUBCHEM_EXACT_MASS>
1116.22483752

> <PUBCHEM_MOLECULAR_FORMULA>
C37H55N10O20P3S2

> <PUBCHEM_MOLECULAR_WEIGHT>
1116.9

> <PUBCHEM_OPENEYE_CAN_SMILES>
CC1(C(NC(S1)C(C=O)NC(=O)C(C2=CC=C(C=C2)O)N)C(=O)SCCNC(=O)CCNC(=O)C(C(C)(C)COP(=O)(O)OP(=O)(O)OCC3C(C(C(O3)N4C=NC5=C(N=CN=C54)N)O)OP(=O)(O)O)O)C

> <PUBCHEM_OPENEYE_ISO_SMILES>
CC1(C(NC(S1)C(C=O)NC(=O)C(C2=CC=C(C=C2)O)N)C(=O)SCCNC(=O)CCNC(=O)C(C(C)(C)COP(=O)(O)OP(=O)(O)OCC3C(C(C(O3)N4C=NC5=C(N=CN=C54)N)O)OP(=O)(O)O)O)C

> <PUBCHEM_CACTVS_TPSA>
519

> <PUBCHEM_MONOISOTOPIC_WEIGHT>
1116.22483752

> <PUBCHEM_TOTAL_CHARGE>
0

> <PUBCHEM_HEAVY_ATOM_COUNT>
72

> <PUBCHEM_ATOM_DEF_STEREO_COUNT>
0

> <PUBCHEM_ATOM_UDEF_STEREO_COUNT>
9

> <PUBCHEM_BOND_DEF_STEREO_COUNT>
0

> <PUBCHEM_BOND_UDEF_STEREO_COUNT>
0

> <PUBCHEM_ISOTOPIC_ATOM_COUNT>
0

> <PUBCHEM_COMPONENT_COUNT>
1

> <PUBCHEM_CACTVS_TAUTO_COUNT>
-1

> <PUBCHEM_COORDINATE_TYPE>
1
5
255

> <PUBCHEM_BONDANNOTATIONS>
42  1  3
57  20  3
40  27  3
27  48  8
27  49  8
29  49  8
29  51  8
30  48  8
30  60  8
31  55  8
31  60  8
56  33  3
39  43  3
41  47  3
44  50  3
48  51  8
51  55  8
63  66  8
63  67  8
66  70  8
67  71  8
36  7  3
70  72  8
71  72  8
38  8  3

$$$$
155488831
  -OEChem-03012215082D

111115  0     1  0  0  0  0  0999 V2000
   25.2023   -0.0072    0.0000 I   0  0  0  0  0  0  0  0  0  0  0  0
   26.6167    3.1550    0.0000 I   0  0  0  0  0  0  0  0  0  0  0  0
   28.2368    4.3278    0.0000 I   0  0  0  0  0  0  0  0  0  0  0  0
   21.4481    2.6208    0.0000 S   0  0  0  0  0  0  0  0  0  0  0  0
    5.3548    3.0224    0.0000 P   0  0  0  0  0  0  0  0  0  0  0  0
    8.4752    1.7827    0.0000 P   0  0  3  0  0  0  0  0  0  0  0  0
   10.1980    1.9607    0.0000 P   0  0  3  0  0  0  0  0  0  0  0  0
    5.9405    0.0182    0.0000 O   0  0  0  0  0  0  0  0  0  0  0  0
    4.6844    2.2805    0.0000 O   0  0  0  0  0  0  0  0  0  0  0  0
    3.4026    0.5226    0.0000 O   0  0  0  0  0  0  0  0  0  0  0  0
    7.6651    1.1963    0.0000 O   0  0  0  0  0  0  0  0  0  0  0  0
    6.0252    3.7644    0.0000 O   0  0  0  0  0  0  0  0  0  0  0  0
    4.6128    3.6929    0.0000 O   0  0  0  0  0  0  0  0  0  0  0  0
    9.2852    2.3690    0.0000 O   0  0  0  0  0  0  0  0  0  0  0  0
    6.0968    2.3520    0.0000 O   0  0  0  0  0  0  0  0  0  0  0  0
   11.1109    1.5524    0.0000 O   0  0  0  0  0  0  0  0  0  0  0  0
    9.0615    0.9726    0.0000 O   0  0  0  0  0  0  0  0  0  0  0  0
    7.8888    2.5927    0.0000 O   0  0  0  0  0  0  0  0  0  0  0  0
   13.8494    0.3275    0.0000 O   0  0  0  0  0  0  0  0  0  0  0  0
   10.6063    2.8736    0.0000 O   0  0  0  0  0  0  0  0  0  0  0  0
    9.7897    1.0479    0.0000 O   0  0  0  0  0  0  0  0  0  0  0  0
   14.4538    2.9032    0.0000 O   0  0  0  0  0  0  0  0  0  0  0  0
   17.8996    3.2594    0.0000 O   0  0  0  0  0  0  0  0  0  0  0  0
   22.4638    1.2178    0.0000 O   0  0  0  0  0  0  0  0  0  0  0  0
   26.8223    1.1656    0.0000 O   0  0  0  0  0  0  0  0  0  0  0  0
   30.0625    3.5112    0.0000 O   0  0  0  0  0  0  0  0  0  0  0  0
    4.6783   -1.2397    0.0000 N   0  0  0  0  0  0  0  0  0  0  0  0
    4.6783   -2.8492    0.0000 N   0  0  0  0  0  0  0  0  0  0  0  0
    2.8660   -1.0444    0.0000 N   0  0  0  0  0  0  0  0  0  0  0  0
    2.0000   -2.5444    0.0000 N   0  0  0  0  0  0  0  0  0  0  0  0
    2.8660   -4.0444    0.0000 N   0  0  0  0  0  0  0  0  0  0  0  0
   15.4695    1.5002    0.0000 N   0  0  0  0  0  0  0  0  0  0  0  0
   18.9152    1.8564    0.0000 N   0  0  0  0  0  0  0  0  0  0  0  0
    4.9917    1.3289    0.0000 C   0  0  3  0  0  0  0  0  0  0  0  0
    4.4026    0.5209    0.0000 C   0  0  3  0  0  0  0  0  0  0  0  0
    5.9422    1.0182    0.0000 C   0  0  3  0  0  0  0  0  0  0  0  0
    4.9889   -0.2892    0.0000 C   0  0  3  0  0  0  0  0  0  0  0  0
    6.7523    1.6046    0.0000 C   0  0  0  0  0  0  0  0  0  0  0  0
    3.7320   -1.5444    0.0000 C   0  0  0  0  0  0  0  0  0  0  0  0
    5.2619   -2.0444    0.0000 C   0  0  0  0  0  0  0  0  0  0  0  0
    3.7320   -2.5444    0.0000 C   0  0  0  0  0  0  0  0  0  0  0  0
   12.8337    1.7305    0.0000 C   0  0  0  0  0  0  0  0  0  0  0  0
    2.8660   -3.0444    0.0000 C   0  0  0  0  0  0  0  0  0  0  0  0
   13.7466    1.3222    0.0000 C   0  0  3  0  0  0  0  0  0  0  0  0
   11.9209    2.1388    0.0000 C   0  0  0  0  0  0  0  0  0  0  0  0
   13.2421    2.6433    0.0000 C   0  0  0  0  0  0  0  0  0  0  0  0
   12.4254    0.8176    0.0000 C   0  0  0  0  0  0  0  0  0  0  0  0
    2.0000   -1.5444    0.0000 C   0  0  0  0  0  0  0  0  0  0  0  0
   14.5566    1.9085    0.0000 C   0  0  0  0  0  0  0  0  0  0  0  0
   16.2795    2.0866    0.0000 C   0  0  0  0  0  0  0  0  0  0  0  0
   17.1923    1.6783    0.0000 C   0  0  0  0  0  0  0  0  0  0  0  0
   18.0024    2.2647    0.0000 C   0  0  0  0  0  0  0  0  0  0  0  0
   19.7252    2.4428    0.0000 C   0  0  0  0  0  0  0  0  0  0  0  0
   20.6381    2.0344    0.0000 C   0  0  0  0  0  0  0  0  0  0  0  0
   22.3610    2.2125    0.0000 C   0  0  0  0  0  0  0  0  0  0  0  0
   23.1710    2.7989    0.0000 C   0  0  0  0  0  0  0  0  0  0  0  0
   24.0838    2.3906    0.0000 C   0  0  0  0  0  0  0  0  0  0  0  0
   24.8939    2.9770    0.0000 C   0  0  0  0  0  0  0  0  0  0  0  0
   24.1866    1.3959    0.0000 C   0  0  0  0  0  0  0  0  0  0  0  0
   25.0995    0.9875    0.0000 C   0  0  0  0  0  0  0  0  0  0  0  0
   25.8067    2.5686    0.0000 C   0  0  0  0  0  0  0  0  0  0  0  0
   25.9095    1.5739    0.0000 C   0  0  0  0  0  0  0  0  0  0  0  0
   27.6324    1.7520    0.0000 C   0  0  0  0  0  0  0  0  0  0  0  0
   27.5296    2.7467    0.0000 C   0  0  0  0  0  0  0  0  0  0  0  0
   28.5452    1.3437    0.0000 C   0  0  0  0  0  0  0  0  0  0  0  0
   28.3396    3.3331    0.0000 C   0  0  0  0  0  0  0  0  0  0  0  0
   29.3553    1.9301    0.0000 C   0  0  0  0  0  0  0  0  0  0  0  0
   29.2524    2.9248    0.0000 C   0  0  0  0  0  0  0  0  0  0  0  0
    5.4309    1.7665    0.0000 H   0  0  0  0  0  0  0  0  0  0  0  0
    4.1220    1.0738    0.0000 H   0  0  0  0  0  0  0  0  0  0  0  0
    6.4942    0.7358    0.0000 H   0  0  0  0  0  0  0  0  0  0  0  0
    5.4266   -0.7283    0.0000 H   0  0  0  0  0  0  0  0  0  0  0  0
    7.0999    2.1180    0.0000 H   0  0  0  0  0  0  0  0  0  0  0  0
    6.3070    2.0360    0.0000 H   0  0  0  0  0  0  0  0  0  0  0  0
    3.0935    1.0601    0.0000 H   0  0  0  0  0  0  0  0  0  0  0  0
    5.8819   -2.0444    0.0000 H   0  0  0  0  0  0  0  0  0  0  0  0
   13.2444    0.9586    0.0000 H   0  0  0  0  0  0  0  0  0  0  0  0
   12.2685    2.6522    0.0000 H   0  0  0  0  0  0  0  0  0  0  0  0
   11.4757    2.5702    0.0000 H   0  0  0  0  0  0  0  0  0  0  0  0
   13.8080    2.3902    0.0000 H   0  0  0  0  0  0  0  0  0  0  0  0
   13.4952    3.2093    0.0000 H   0  0  0  0  0  0  0  0  0  0  0  0
   12.6761    2.8965    0.0000 H   0  0  0  0  0  0  0  0  0  0  0  0
   11.8595    1.0708    0.0000 H   0  0  0  0  0  0  0  0  0  0  0  0
   12.1723    0.2517    0.0000 H   0  0  0  0  0  0  0  0  0  0  0  0
   12.9914    0.5645    0.0000 H   0  0  0  0  0  0  0  0  0  0  0  0
    5.8346    4.3544    0.0000 H   0  0  0  0  0  0  0  0  0  0  0  0
    4.0228    3.5023    0.0000 H   0  0  0  0  0  0  0  0  0  0  0  0
    1.4631   -1.2344    0.0000 H   0  0  0  0  0  0  0  0  0  0  0  0
    8.8084    0.4067    0.0000 H   0  0  0  0  0  0  0  0  0  0  0  0
    2.3291   -4.3544    0.0000 H   0  0  0  0  0  0  0  0  0  0  0  0
    3.4030   -4.3544    0.0000 H   0  0  0  0  0  0  0  0  0  0  0  0
   14.4154    0.0743    0.0000 H   0  0  0  0  0  0  0  0  0  0  0  0
   15.5332    0.8835    0.0000 H   0  0  0  0  0  0  0  0  0  0  0  0
   16.6271    2.6000    0.0000 H   0  0  0  0  0  0  0  0  0  0  0  0
   15.8342    2.5181    0.0000 H   0  0  0  0  0  0  0  0  0  0  0  0
   10.2428    3.3758    0.0000 H   0  0  0  0  0  0  0  0  0  0  0  0
   16.8447    1.1649    0.0000 H   0  0  0  0  0  0  0  0  0  0  0  0
   17.6376    1.2468    0.0000 H   0  0  0  0  0  0  0  0  0  0  0  0
   18.9789    1.2396    0.0000 H   0  0  0  0  0  0  0  0  0  0  0  0
   20.0728    2.9562    0.0000 H   0  0  0  0  0  0  0  0  0  0  0  0
   19.2800    2.8742    0.0000 H   0  0  0  0  0  0  0  0  0  0  0  0
   20.2905    1.5210    0.0000 H   0  0  0  0  0  0  0  0  0  0  0  0
   21.0833    1.6030    0.0000 H   0  0  0  0  0  0  0  0  0  0  0  0
   23.5186    3.3123    0.0000 H   0  0  0  0  0  0  0  0  0  0  0  0
   22.7257    3.2303    0.0000 H   0  0  0  0  0  0  0  0  0  0  0  0
   24.8301    3.5937    0.0000 H   0  0  0  0  0  0  0  0  0  0  0  0
   23.6844    1.0323    0.0000 H   0  0  0  0  0  0  0  0  0  0  0  0
   26.9636    2.9999    0.0000 H   0  0  0  0  0  0  0  0  0  0  0  0
   28.6090    0.7270    0.0000 H   0  0  0  0  0  0  0  0  0  0  0  0
   29.9212    1.6769    0.0000 H   0  0  0  0  0  0  0  0  0  0  0  0
   30.6284    3.2580    0.0000 H   0  0  0  0  0  0  0  0  0  0  0  0
  1 60  1  0  0  0  0
  2 61  1  0  0  0  0
  3 66  1  0  0  0  0
  4 54  1  0  0  0  0
  4 55  1  0  0  0  0
  5  9  1  0  0  0  0
  5 12  1  0  0  0  0
  5 13  1  0  0  0  0
  5 15  2  0  0  0  0
  6 11  1  0  0  0  0
  6 14  1  0  0  0  0
  6 17  1  0  0  0  0
  6 18  2  0  0  0  0
  7 14  1  0  0  0  0
  7 16  1  0  0  0  0
  7 20  1  0  0  0  0
  7 21  2  0  0  0  0
  8 36  1  0  0  0  0
  8 37  1  0  0  0  0
  9 34  1  0  0  0  0
 10 35  1  0  0  0  0
 10 75  1  0  0  0  0
 11 38  1  0  0  0  0
 12 86  1  0  0  0  0
 13 87  1  0  0  0  0
 16 45  1  0  0  0  0
 17 89  1  0  0  0  0
 19 44  1  0  0  0  0
 19 92  1  0  0  0  0
 20 96  1  0  0  0  0
 22 49  2  0  0  0  0
 23 52  2  0  0  0  0
 24 55  2  0  0  0  0
 25 62  1  0  0  0  0
 25 63  1  0  0  0  0
 26 68  1  0  0  0  0
 26111  1  0  0  0  0
 27 37  1  0  0  0  0
 27 39  1  0  0  0  0
 27 40  1  0  0  0  0
 28 40  2  0  0  0  0
 28 41  1  0  0  0  0
 29 39  2  0  0  0  0
 29 48  1  0  0  0  0
 30 43  1  0  0  0  0
 30 48  2  0  0  0  0
 31 43  1  0  0  0  0
 31 90  1  0  0  0  0
 31 91  1  0  0  0  0
 32 49  1  0  0  0  0
 32 50  1  0  0  0  0
 32 93  1  0  0  0  0
 33 52  1  0  0  0  0
 33 53  1  0  0  0  0
 33 99  1  0  0  0  0
 34 35  1  0  0  0  0
 34 36  1  0  0  0  0
 34 69  1  0  0  0  0
 35 37  1  0  0  0  0
 35 70  1  0  0  0  0
 36 38  1  0  0  0  0
 36 71  1  0  0  0  0
 37 72  1  0  0  0  0
 38 73  1  0  0  0  0
 38 74  1  0  0  0  0
 39 41  1  0  0  0  0
 40 76  1  0  0  0  0
 41 43  2  0  0  0  0
 42 44  1  0  0  0  0
 42 45  1  0  0  0  0
 42 46  1  0  0  0  0
 42 47  1  0  0  0  0
 44 49  1  0  0  0  0
 44 77  1  0  0  0  0
 45 78  1  0  0  0  0
 45 79  1  0  0  0  0
 46 80  1  0  0  0  0
 46 81  1  0  0  0  0
 46 82  1  0  0  0  0
 47 83  1  0  0  0  0
 47 84  1  0  0  0  0
 47 85  1  0  0  0  0
 48 88  1  0  0  0  0
 50 51  1  0  0  0  0
 50 94  1  0  0  0  0
 50 95  1  0  0  0  0
 51 52  1  0  0  0  0
 51 97  1  0  0  0  0
 51 98  1  0  0  0  0
 53 54  1  0  0  0  0
 53100  1  0  0  0  0
 53101  1  0  0  0  0
 54102  1  0  0  0  0
 54103  1  0  0  0  0
 55 56  1  0  0  0  0
 56 57  1  0  0  0  0
 56104  1  0  0  0  0
 56105  1  0  0  0  0
 57 58  2  0  0  0  0
 57 59  1  0  0  0  0
 58 61  1  0  0  0  0
 58106  1  0  0  0  0
 59 60  2  0  0  0  0
 59107  1  0  0  0  0
 60 62  1  0  0  0  0
 61 62  2  0  0  0  0
 63 64  2  0  0  0  0
 63 65  1  0  0  0  0
 64 66  1  0  0  0  0
 64108  1  0  0  0  0
 65 67  2  0  0  0  0
 65109  1  0  0  0  0
 66 68  2  0  0  0  0
 67 68  1  0  0  0  0
 67110  1  0  0  0  0
M  END
> <PUBCHEM_COMPOUND_CID>
155488831

> <PUBCHEM_COMPOUND_CANONICALIZED>
1

> <PUBCHEM_CACTVS_COMPLEXITY>
1860

> <PUBCHEM_CACTVS_HBOND_ACCEPTOR>
24

> <PUBCHEM_CACTVS_HBOND_DONOR>
10

> <PUBCHEM_CACTVS_ROTATABLE_BOND>
24

> <PUBCHEM_CACTVS_SUBSKEYS>
AAADcfB/vgNAAwAAAAAAAAAAAAAAAWJAAAA8YIAAAAAAAFgB/AAAHgQwCCAADhzn3wa39r/MFxioQydzdIKCiC0xMLAJ2KFuXJiPfjrm/VqefCiv1hP7uCf6+IKPIQAAAAAAAABCAAAAAAAAAAAAAAAAAA==

> <PUBCHEM_IUPAC_OPENEYE_NAME>
S-[2-[3-[[4-[[[5-(6-aminopurin-9-yl)-4-hydroxy-3-phosphonooxy-tetrahydrofuran-2-yl]methoxy-hydroxy-phosphoryl]oxy-hydroxy-phosphoryl]oxy-2-hydroxy-3,3-dimethyl-butanoyl]amino]propanoylamino]ethyl] 2-[4-(4-hydroxy-3-iodo-phenoxy)-3,5-diiodo-phenyl]ethanethioate

> <PUBCHEM_IUPAC_CAS_NAME>
2-[4-(4-hydroxy-3-iodophenoxy)-3,5-diiodophenyl]ethanethioic acid S-[2-[[3-[[4-[[[5-(6-aminopurin-9-yl)-4-hydroxy-3-phosphonooxy-2-oxolanyl]methoxy-hydroxyphosphoryl]oxy-hydroxyphosphoryl]oxy-2-hydroxy-3,3-dimethyl-1-oxobutyl]amino]-1-oxopropyl]amino]ethyl] ester

> <PUBCHEM_IUPAC_NAME_MARKUP>
<I>S</I>-[2-[3-[[4-[[[5-(6-aminopurin-9-yl)-4-hydroxy-3-phosphonooxyoxolan-2-yl]methoxy-hydroxyphosphoryl]oxy-hydroxyphosphoryl]oxy-2-hydroxy-3,3-dimethylbutanoyl]amino]propanoylamino]ethyl] 2-[4-(4-hydroxy-3-iodophenoxy)-3,5-diiodophenyl]ethanethioate

> <PUBCHEM_IUPAC_NAME>
S-[2-[3-[[4-[[[5-(6-aminopurin-9-yl)-4-hydroxy-3-phosphonooxyoxolan-2-yl]methoxy-hydroxyphosphoryl]oxy-hydroxyphosphoryl]oxy-2-hydroxy-3,3-dimethylbutanoyl]amino]propanoylamino]ethyl] 2-[4-(4-hydroxy-3-iodophenoxy)-3,5-diiodophenyl]ethanethioate

> <PUBCHEM_IUPAC_SYSTEMATIC_NAME>
S-[2-[3-[[4-[[[5-(6-aminopurin-9-yl)-4-oxidanyl-3-phosphonooxy-oxolan-2-yl]methoxy-oxidanyl-phosphoryl]oxy-oxidanyl-phosphoryl]oxy-3,3-dimethyl-2-oxidanyl-butanoyl]amino]propanoylamino]ethyl] 2-[3,5-bis(iodanyl)-4-(3-iodanyl-4-oxidanyl-phenoxy)phenyl]ethanethioate

> <PUBCHEM_IUPAC_TRADITIONAL_NAME>
2-[4-(4-hydroxy-3-iodo-phenoxy)-3,5-diiodo-phenyl]ethanethioic acid S-[2-[3-[[4-[[(5-adenin-9-yl-4-hydroxy-3-phosphonooxy-tetrahydrofuran-2-yl)methoxy-hydroxy-phosphoryl]oxy-hydroxy-phosphoryl]oxy-2-hydroxy-3,3-dimethyl-butanoyl]amino]propanoylamino]ethyl] ester

> <PUBCHEM_IUPAC_INCHI>
InChI=1S/C35H43I3N7O19P3S/c1-35(2,14-60-67(57,58)64-66(55,56)59-13-23-29(63-65(52,53)54)27(49)34(62-23)45-16-44-26-31(39)42-15-43-32(26)45)30(50)33(51)41-6-5-24(47)40-7-8-68-25(48)11-17-9-20(37)28(21(38)10-17)61-18-3-4-22(46)19(36)12-18/h3-4,9-10,12,15-16,23,27,29-30,34,46,49-50H,5-8,11,13-14H2,1-2H3,(H,40,47)(H,41,51)(H,55,56)(H,57,58)(H2,39,42,43)(H2,52,53,54)

> <PUBCHEM_IUPAC_INCHIKEY>
CQTRMZNXIOENKN-UHFFFAOYSA-N

> <PUBCHEM_XLOGP3_AA>
-0.9

> <PUBCHEM_EXACT_MASS>
1370.8681

> <PUBCHEM_MOLECULAR_FORMULA>
C35H43I3N7O19P3S

> <PUBCHEM_MOLECULAR_WEIGHT>
1371.5

> <PUBCHEM_OPENEYE_CAN_SMILES>
CC(C)(COP(=O)(O)OP(=O)(O)OCC1C(C(C(O1)N2C=NC3=C(N=CN=C32)N)O)OP(=O)(O)O)C(C(=O)NCCC(=O)NCCSC(=O)CC4=CC(=C(C(=C4)I)OC5=CC(=C(C=C5)O)I)I)O

> <PUBCHEM_OPENEYE_ISO_SMILES>
CC(C)(COP(=O)(O)OP(=O)(O)OCC1C(C(C(O1)N2C=NC3=C(N=CN=C32)N)O)OP(=O)(O)O)C(C(=O)NCCC(=O)NCCSC(=O)CC4=CC(=C(C(=C4)I)OC5=CC(=C(C=C5)O)I)I)O

> <PUBCHEM_CACTVS_TPSA>
418

> <PUBCHEM_MONOISOTOPIC_WEIGHT>
1370.8681

> <PUBCHEM_TOTAL_CHARGE>
0

> <PUBCHEM_HEAVY_ATOM_COUNT>
68

> <PUBCHEM_ATOM_DEF_STEREO_COUNT>
0

> <PUBCHEM_ATOM_UDEF_STEREO_COUNT>
5

> <PUBCHEM_BOND_DEF_STEREO_COUNT>
0

> <PUBCHEM_BOND_UDEF_STEREO_COUNT>
0

> <PUBCHEM_ISOTOPIC_ATOM_COUNT>
0

> <PUBCHEM_COMPONENT_COUNT>
1

> <PUBCHEM_CACTVS_TAUTO_COUNT>
-1

> <PUBCHEM_COORDINATE_TYPE>
1
5
255

> <PUBCHEM_BONDANNOTATIONS>
35  10  3
44  19  3
37  27  3
27  39  8
27  40  8
28  40  8
28  41  8
29  39  8
29  48  8
30  43  8
30  48  8
36  38  3
39  41  8
41  43  8
57  58  8
57  59  8
58  61  8
59  60  8
60  62  8
61  62  8
63  64  8
63  65  8
64  66  8
65  67  8
66  68  8
67  68  8
34  9  3

$$$$
155488839
  -OEChem-03012215082D

145151  0     1  0  0  0  0  0999 V2000
   23.9681   -1.5485    0.0000 S   0  0  0  0  0  0  0  0  0  0  0  0
   29.1643    0.4515    0.0000 S   0  0  0  0  0  0  0  0  0  0  0  0
    8.8104    1.0933    0.0000 P   0  0  0  0  0  0  0  0  0  0  0  0
   10.9777   -2.0485    0.0000 P   0  0  3  0  0  0  0  0  0  0  0  0
   12.7098   -2.0485    0.0000 P   0  0  3  0  0  0  0  0  0  0  0  0
    7.4661   -1.9553    0.0000 O   0  0  0  0  0  0  0  0  0  0  0  0
    9.0183    0.1151    0.0000 O   0  0  0  0  0  0  0  0  0  0  0  0
    6.8902    0.5675    0.0000 O   0  0  0  0  0  0  0  0  0  0  0  0
   10.1117   -1.5485    0.0000 O   0  0  0  0  0  0  0  0  0  0  0  0
    8.6024    2.0714    0.0000 O   0  0  0  0  0  0  0  0  0  0  0  0
    9.7885    1.3012    0.0000 O   0  0  0  0  0  0  0  0  0  0  0  0
   25.7002    0.4515    0.0000 O   0  0  0  0  0  0  0  0  0  0  0  0
    7.8322    0.8854    0.0000 O   0  0  0  0  0  0  0  0  0  0  0  0
   11.8438   -2.5485    0.0000 O   0  0  0  0  0  0  0  0  0  0  0  0
   24.8341   -0.0485    0.0000 O   0  0  0  0  0  0  0  0  0  0  0  0
   10.4777   -2.9145    0.0000 O   0  0  0  0  0  0  0  0  0  0  0  0
   13.5758   -1.5485    0.0000 O   0  0  0  0  0  0  0  0  0  0  0  0
   11.4777   -1.1825    0.0000 O   0  0  0  0  0  0  0  0  0  0  0  0
   28.6643    1.3175    0.0000 O   0  0  0  0  0  0  0  0  0  0  0  0
   29.6643   -0.4145    0.0000 O   0  0  0  0  0  0  0  0  0  0  0  0
   16.1739   -0.0485    0.0000 O   0  0  0  0  0  0  0  0  0  0  0  0
   12.2098   -1.1825    0.0000 O   0  0  0  0  0  0  0  0  0  0  0  0
   13.2098   -2.9145    0.0000 O   0  0  0  0  0  0  0  0  0  0  0  0
   17.0399   -2.5485    0.0000 O   0  0  0  0  0  0  0  0  0  0  0  0
   20.5040   -2.5485    0.0000 O   0  0  0  0  0  0  0  0  0  0  0  0
    5.8025   -1.3166    0.0000 N   0  0  0  0  0  0  0  0  0  0  0  0
   26.5662   -1.0485    0.0000 N   0  0  0  0  0  0  0  0  0  0  0  0
    4.3333   -1.9738    0.0000 N   0  0  0  0  0  0  0  0  0  0  0  0
    5.2407    0.4174    0.0000 N   0  0  0  0  0  0  0  0  0  0  0  0
   28.2982   -0.0485    0.0000 N   0  0  0  0  0  0  0  0  0  0  0  0
    3.5179    0.5954    0.0000 N   0  0  0  0  0  0  0  0  0  0  0  0
    2.5022   -0.8076    0.0000 N   0  0  0  0  0  0  0  0  0  0  0  0
   17.9059   -1.0485    0.0000 N   0  0  0  0  0  0  0  0  0  0  0  0
   21.3700   -1.0485    0.0000 N   0  0  0  0  0  0  0  0  0  0  0  0
   23.1021    1.9515    0.0000 N   0  0  0  0  0  0  0  0  0  0  0  0
   23.9681    0.4515    0.0000 N   0  0  0  0  0  0  0  0  0  0  0  0
    8.2751   -0.5540    0.0000 C   0  0  3  0  0  0  0  0  0  0  0  0
    7.2970   -0.3461    0.0000 C   0  0  3  0  0  0  0  0  0  0  0  0
    8.3797   -1.5485    0.0000 C   0  0  3  0  0  0  0  0  0  0  0  0
    6.7970   -1.2121    0.0000 C   0  0  3  0  0  0  0  0  0  0  0  0
    9.2457   -2.0485    0.0000 C   0  0  0  0  0  0  0  0  0  0  0  0
   25.7002   -1.5485    0.0000 C   0  0  3  0  0  0  0  0  0  0  0  0
   25.7002   -2.5485    0.0000 C   0  0  0  0  0  0  0  0  0  0  0  0
   26.5662   -3.0485    0.0000 C   0  0  0  0  0  0  0  0  0  0  0  0
   27.4322   -1.5485    0.0000 C   0  0  0  0  0  0  0  0  0  0  0  0
   27.4322   -2.5485    0.0000 C   0  0  0  0  0  0  0  0  0  0  0  0
    5.1379   -0.5773    0.0000 C   0  0  0  0  0  0  0  0  0  0  0  0
    5.3062   -2.1780    0.0000 C   0  0  0  0  0  0  0  0  0  0  0  0
   26.5662   -0.0485    0.0000 C   0  0  0  0  0  0  0  0  0  0  0  0
   27.4322    0.4515    0.0000 C   0  0  3  0  0  0  0  0  0  0  0  0
    4.2251   -0.9856    0.0000 C   0  0  0  0  0  0  0  0  0  0  0  0
   24.8341   -1.0485    0.0000 C   0  0  0  0  0  0  0  0  0  0  0  0
   27.4322    1.4515    0.0000 C   0  0  0  0  0  0  0  0  0  0  0  0
    3.4151   -0.3993    0.0000 C   0  0  0  0  0  0  0  0  0  0  0  0
   15.3079   -1.5485    0.0000 C   0  0  0  0  0  0  0  0  0  0  0  0
   26.5662    1.9515    0.0000 C   0  0  0  0  0  0  0  0  0  0  0  0
    4.4307    1.0038    0.0000 C   0  0  0  0  0  0  0  0  0  0  0  0
   14.4418   -2.0485    0.0000 C   0  0  0  0  0  0  0  0  0  0  0  0
   16.1739   -1.0485    0.0000 C   0  0  3  0  0  0  0  0  0  0  0  0
   23.1021   -1.0485    0.0000 C   0  0  0  0  0  0  0  0  0  0  0  0
   14.8079   -0.6825    0.0000 C   0  0  0  0  0  0  0  0  0  0  0  0
   15.8079   -2.4145    0.0000 C   0  0  0  0  0  0  0  0  0  0  0  0
   30.0303    0.9515    0.0000 C   0  0  0  0  0  0  0  0  0  0  0  0
   25.7002    1.4515    0.0000 C   0  0  0  0  0  0  0  0  0  0  0  0
   26.5662    2.9515    0.0000 C   0  0  0  0  0  0  0  0  0  0  0  0
   22.2361   -1.5485    0.0000 C   0  0  0  0  0  0  0  0  0  0  0  0
   17.0399   -1.5485    0.0000 C   0  0  0  0  0  0  0  0  0  0  0  0
   24.8341    1.9515    0.0000 C   0  0  0  0  0  0  0  0  0  0  0  0
   30.8963    0.4515    0.0000 C   0  0  0  0  0  0  0  0  0  0  0  0
   25.7002    3.4515    0.0000 C   0  0  0  0  0  0  0  0  0  0  0  0
   30.0303    1.9515    0.0000 C   0  0  0  0  0  0  0  0  0  0  0  0
   24.8341    2.9515    0.0000 C   0  0  0  0  0  0  0  0  0  0  0  0
   18.7720   -1.5485    0.0000 C   0  0  0  0  0  0  0  0  0  0  0  0
   31.7623    0.9515    0.0000 C   0  0  0  0  0  0  0  0  0  0  0  0
   19.6380   -1.0485    0.0000 C   0  0  0  0  0  0  0  0  0  0  0  0
   30.8963    2.4515    0.0000 C   0  0  0  0  0  0  0  0  0  0  0  0
   31.7623    1.9515    0.0000 C   0  0  0  0  0  0  0  0  0  0  0  0
   20.5040   -1.5485    0.0000 C   0  0  0  0  0  0  0  0  0  0  0  0
   23.9681    1.4515    0.0000 C   0  0  0  0  0  0  0  0  0  0  0  0
   32.6563    0.4168    0.0000 C   0  0  0  0  0  0  0  0  0  0  0  0
   32.6563    2.4861    0.0000 C   0  0  0  0  0  0  0  0  0  0  0  0
   33.5624    0.9307    0.0000 C   0  0  0  0  0  0  0  0  0  0  0  0
   33.5624    1.9723    0.0000 C   0  0  0  0  0  0  0  0  0  0  0  0
    8.8540   -0.7762    0.0000 H   0  0  0  0  0  0  0  0  0  0  0  0
    7.6872    0.1357    0.0000 H   0  0  0  0  0  0  0  0  0  0  0  0
    8.3472   -2.1677    0.0000 H   0  0  0  0  0  0  0  0  0  0  0  0
    6.5748   -1.7909    0.0000 H   0  0  0  0  0  0  0  0  0  0  0  0
    8.8472   -2.5235    0.0000 H   0  0  0  0  0  0  0  0  0  0  0  0
    9.6442   -2.5235    0.0000 H   0  0  0  0  0  0  0  0  0  0  0  0
   25.7002   -0.9285    0.0000 H   0  0  0  0  0  0  0  0  0  0  0  0
   25.0896   -2.4409    0.0000 H   0  0  0  0  0  0  0  0  0  0  0  0
   25.4881   -3.1311    0.0000 H   0  0  0  0  0  0  0  0  0  0  0  0
   26.1677   -3.5235    0.0000 H   0  0  0  0  0  0  0  0  0  0  0  0
   26.9647   -3.5235    0.0000 H   0  0  0  0  0  0  0  0  0  0  0  0
   28.0428   -1.6562    0.0000 H   0  0  0  0  0  0  0  0  0  0  0  0
   27.6443   -0.9659    0.0000 H   0  0  0  0  0  0  0  0  0  0  0  0
   27.6443   -3.1311    0.0000 H   0  0  0  0  0  0  0  0  0  0  0  0
   28.0428   -2.4409    0.0000 H   0  0  0  0  0  0  0  0  0  0  0  0
    7.2547    1.0690    0.0000 H   0  0  0  0  0  0  0  0  0  0  0  0
    5.5593   -2.7439    0.0000 H   0  0  0  0  0  0  0  0  0  0  0  0
   27.4322   -0.1685    0.0000 H   0  0  0  0  0  0  0  0  0  0  0  0
   28.0428    1.3438    0.0000 H   0  0  0  0  0  0  0  0  0  0  0  0
   27.6443    2.0341    0.0000 H   0  0  0  0  0  0  0  0  0  0  0  0
   28.2982   -0.6685    0.0000 H   0  0  0  0  0  0  0  0  0  0  0  0
    9.0632    2.4863    0.0000 H   0  0  0  0  0  0  0  0  0  0  0  0
    9.9801    1.8908    0.0000 H   0  0  0  0  0  0  0  0  0  0  0  0
    4.4944    1.6205    0.0000 H   0  0  0  0  0  0  0  0  0  0  0  0
   14.0433   -2.5235    0.0000 H   0  0  0  0  0  0  0  0  0  0  0  0
   14.8404   -2.5235    0.0000 H   0  0  0  0  0  0  0  0  0  0  0  0
   15.6370   -0.7385    0.0000 H   0  0  0  0  0  0  0  0  0  0  0  0
   23.5006   -0.5736    0.0000 H   0  0  0  0  0  0  0  0  0  0  0  0
   22.7036   -0.5736    0.0000 H   0  0  0  0  0  0  0  0  0  0  0  0
   15.3448   -0.3725    0.0000 H   0  0  0  0  0  0  0  0  0  0  0  0
   14.4979   -0.1456    0.0000 H   0  0  0  0  0  0  0  0  0  0  0  0
   14.2709   -0.9925    0.0000 H   0  0  0  0  0  0  0  0  0  0  0  0
   15.2709   -2.7245    0.0000 H   0  0  0  0  0  0  0  0  0  0  0  0
   16.1179   -2.9515    0.0000 H   0  0  0  0  0  0  0  0  0  0  0  0
   16.3448   -2.1045    0.0000 H   0  0  0  0  0  0  0  0  0  0  0  0
    2.0000   -0.4440    0.0000 H   0  0  0  0  0  0  0  0  0  0  0  0
    2.4385   -1.4243    0.0000 H   0  0  0  0  0  0  0  0  0  0  0  0
   10.7877   -3.4515    0.0000 H   0  0  0  0  0  0  0  0  0  0  0  0
   25.7002    0.8315    0.0000 H   0  0  0  0  0  0  0  0  0  0  0  0
   27.1031    3.2615    0.0000 H   0  0  0  0  0  0  0  0  0  0  0  0
   21.8375   -2.0235    0.0000 H   0  0  0  0  0  0  0  0  0  0  0  0
   22.6346   -2.0235    0.0000 H   0  0  0  0  0  0  0  0  0  0  0  0
   30.8963   -0.1685    0.0000 H   0  0  0  0  0  0  0  0  0  0  0  0
   25.7002    4.0715    0.0000 H   0  0  0  0  0  0  0  0  0  0  0  0
   29.4934    2.2615    0.0000 H   0  0  0  0  0  0  0  0  0  0  0  0
   15.6370    0.2615    0.0000 H   0  0  0  0  0  0  0  0  0  0  0  0
   17.9059   -0.4285    0.0000 H   0  0  0  0  0  0  0  0  0  0  0  0
   24.2972    3.2615    0.0000 H   0  0  0  0  0  0  0  0  0  0  0  0
   21.3700   -0.4285    0.0000 H   0  0  0  0  0  0  0  0  0  0  0  0
   18.3734   -2.0235    0.0000 H   0  0  0  0  0  0  0  0  0  0  0  0
   19.1705   -2.0235    0.0000 H   0  0  0  0  0  0  0  0  0  0  0  0
   20.0365   -0.5736    0.0000 H   0  0  0  0  0  0  0  0  0  0  0  0
   19.2395   -0.5736    0.0000 H   0  0  0  0  0  0  0  0  0  0  0  0
   12.5198   -0.6456    0.0000 H   0  0  0  0  0  0  0  0  0  0  0  0
   30.8963    3.0715    0.0000 H   0  0  0  0  0  0  0  0  0  0  0  0
   32.6491   -0.2031    0.0000 H   0  0  0  0  0  0  0  0  0  0  0  0
   32.6491    3.1061    0.0000 H   0  0  0  0  0  0  0  0  0  0  0  0
   34.0981    0.6186    0.0000 H   0  0  0  0  0  0  0  0  0  0  0  0
   34.0981    2.2844    0.0000 H   0  0  0  0  0  0  0  0  0  0  0  0
   22.5652    1.6415    0.0000 H   0  0  0  0  0  0  0  0  0  0  0  0
   23.1021    2.5715    0.0000 H   0  0  0  0  0  0  0  0  0  0  0  0
   23.4312    0.1415    0.0000 H   0  0  0  0  0  0  0  0  0  0  0  0
  1 52  1  0  0  0  0
  1 60  1  0  0  0  0
  2 19  2  0  0  0  0
  2 20  2  0  0  0  0
  2 30  1  0  0  0  0
  2 63  1  0  0  0  0
  3  7  1  0  0  0  0
  3 10  1  0  0  0  0
  3 11  1  0  0  0  0
  3 13  2  0  0  0  0
  4  9  1  0  0  0  0
  4 14  1  0  0  0  0
  4 16  1  0  0  0  0
  4 18  2  0  0  0  0
  5 14  1  0  0  0  0
  5 17  1  0  0  0  0
  5 22  1  0  0  0  0
  5 23  2  0  0  0  0
  6 39  1  0  0  0  0
  6 40  1  0  0  0  0
  7 37  1  0  0  0  0
  8 38  1  0  0  0  0
  8 99  1  0  0  0  0
  9 41  1  0  0  0  0
 10105  1  0  0  0  0
 11106  1  0  0  0  0
 12 49  2  0  0  0  0
 15 52  2  0  0  0  0
 16121  1  0  0  0  0
 17 58  1  0  0  0  0
 21 59  1  0  0  0  0
 21129  1  0  0  0  0
 22137  1  0  0  0  0
 24 67  2  0  0  0  0
 25 78  2  0  0  0  0
 26 40  1  0  0  0  0
 26 47  1  0  0  0  0
 26 48  1  0  0  0  0
 27 42  1  0  0  0  0
 27 45  1  0  0  0  0
 27 49  1  0  0  0  0
 28 48  2  0  0  0  0
 28 51  1  0  0  0  0
 29 47  2  0  0  0  0
 29 57  1  0  0  0  0
 30 50  1  0  0  0  0
 30104  1  0  0  0  0
 31 54  1  0  0  0  0
 31 57  2  0  0  0  0
 32 54  1  0  0  0  0
 32119  1  0  0  0  0
 32120  1  0  0  0  0
 33 67  1  0  0  0  0
 33 73  1  0  0  0  0
 33130  1  0  0  0  0
 34 66  1  0  0  0  0
 34 78  1  0  0  0  0
 34132  1  0  0  0  0
 35 79  1  0  0  0  0
 35143  1  0  0  0  0
 35144  1  0  0  0  0
 36 79  2  0  0  0  0
 36145  1  0  0  0  0
 37 38  1  0  0  0  0
 37 39  1  0  0  0  0
 37 84  1  0  0  0  0
 38 40  1  0  0  0  0
 38 85  1  0  0  0  0
 39 41  1  0  0  0  0
 39 86  1  0  0  0  0
 40 87  1  0  0  0  0
 41 88  1  0  0  0  0
 41 89  1  0  0  0  0
 42 43  1  0  0  0  0
 42 52  1  0  0  0  0
 42 90  1  0  0  0  0
 43 44  1  0  0  0  0
 43 91  1  0  0  0  0
 43 92  1  0  0  0  0
 44 46  1  0  0  0  0
 44 93  1  0  0  0  0
 44 94  1  0  0  0  0
 45 46  1  0  0  0  0
 45 95  1  0  0  0  0
 45 96  1  0  0  0  0
 46 97  1  0  0  0  0
 46 98  1  0  0  0  0
 47 51  1  0  0  0  0
 48100  1  0  0  0  0
 49 50  1  0  0  0  0
 50 53  1  0  0  0  0
 50101  1  0  0  0  0
 51 54  2  0  0  0  0
 53 56  1  0  0  0  0
 53102  1  0  0  0  0
 53103  1  0  0  0  0
 55 58  1  0  0  0  0
 55 59  1  0  0  0  0
 55 61  1  0  0  0  0
 55 62  1  0  0  0  0
 56 64  2  0  0  0  0
 56 65  1  0  0  0  0
 57107  1  0  0  0  0
 58108  1  0  0  0  0
 58109  1  0  0  0  0
 59 67  1  0  0  0  0
 59110  1  0  0  0  0
 60 66  1  0  0  0  0
 60111  1  0  0  0  0
 60112  1  0  0  0  0
 61113  1  0  0  0  0
 61114  1  0  0  0  0
 61115  1  0  0  0  0
 62116  1  0  0  0  0
 62117  1  0  0  0  0
 62118  1  0  0  0  0
 63 69  2  0  0  0  0
 63 71  1  0  0  0  0
 64 68  1  0  0  0  0
 64122  1  0  0  0  0
 65 70  2  0  0  0  0
 65123  1  0  0  0  0
 66124  1  0  0  0  0
 66125  1  0  0  0  0
 68 72  2  0  0  0  0
 68 79  1  0  0  0  0
 69 74  1  0  0  0  0
 69126  1  0  0  0  0
 70 72  1  0  0  0  0
 70127  1  0  0  0  0
 71 76  2  0  0  0  0
 71128  1  0  0  0  0
 72131  1  0  0  0  0
 73 75  1  0  0  0  0
 73133  1  0  0  0  0
 73134  1  0  0  0  0
 74 77  1  0  0  0  0
 74 80  2  0  0  0  0
 75 78  1  0  0  0  0
 75135  1  0  0  0  0
 75136  1  0  0  0  0
 76 77  1  0  0  0  0
 76138  1  0  0  0  0
 77 81  2  0  0  0  0
 80 82  1  0  0  0  0
 80139  1  0  0  0  0
 81 83  1  0  0  0  0
 81140  1  0  0  0  0
 82 83  2  0  0  0  0
 82141  1  0  0  0  0
 83142  1  0  0  0  0
M  END
> <PUBCHEM_COMPOUND_CID>
155488839

> <PUBCHEM_COMPOUND_CANONICALIZED>
1

> <PUBCHEM_CACTVS_COMPLEXITY>
2540

> <PUBCHEM_CACTVS_HBOND_ACCEPTOR>
27

> <PUBCHEM_CACTVS_HBOND_DONOR>
12

> <PUBCHEM_CACTVS_ROTATABLE_BOND>
28

> <PUBCHEM_CACTVS_SUBSKEYS>
AAADcfB//gNgAAAAAAAAAAAAAAAAAWJAAAA8eMECAAAAAFjB/AAAHgQQSCAADjzl3wa38f/MFxqoQydzdPLCgD2xELAJ2LnoVJiLeLrg2XGeZAhvlgL7iCf6uMKPkAACgAAQAAAgAAUAACAAAAAAAAAAAA==

> <PUBCHEM_IUPAC_OPENEYE_NAME>
S-[2-[3-[[4-[[[5-(6-aminopurin-9-yl)-4-hydroxy-3-phosphonooxy-tetrahydrofuran-2-yl]methoxy-hydroxy-phosphoryl]oxy-hydroxy-phosphoryl]oxy-2-hydroxy-3,3-dimethyl-butanoyl]amino]propanoylamino]ethyl] 1-[3-(3-carbamimidoylphenyl)-2-(2-naphthylsulfonylamino)propanoyl]piperidine-2-carbothioate

> <PUBCHEM_IUPAC_CAS_NAME>
1-[3-(3-carbamimidoylphenyl)-2-(2-naphthalenylsulfonylamino)-1-oxopropyl]-2-piperidinecarbothioic acid S-[2-[[3-[[4-[[[5-(6-aminopurin-9-yl)-4-hydroxy-3-phosphonooxy-2-oxolanyl]methoxy-hydroxyphosphoryl]oxy-hydroxyphosphoryl]oxy-2-hydroxy-3,3-dimethyl-1-oxobutyl]amino]-1-oxopropyl]amino]ethyl] ester

> <PUBCHEM_IUPAC_NAME_MARKUP>
<I>S</I>-[2-[3-[[4-[[[5-(6-aminopurin-9-yl)-4-hydroxy-3-phosphonooxyoxolan-2-yl]methoxy-hydroxyphosphoryl]oxy-hydroxyphosphoryl]oxy-2-hydroxy-3,3-dimethylbutanoyl]amino]propanoylamino]ethyl] 1-[3-(3-carbamimidoylphenyl)-2-(naphthalen-2-ylsulfonylamino)propanoyl]piperidine-2-carbothioate

> <PUBCHEM_IUPAC_NAME>
S-[2-[3-[[4-[[[5-(6-aminopurin-9-yl)-4-hydroxy-3-phosphonooxyoxolan-2-yl]methoxy-hydroxyphosphoryl]oxy-hydroxyphosphoryl]oxy-2-hydroxy-3,3-dimethylbutanoyl]amino]propanoylamino]ethyl] 1-[3-(3-carbamimidoylphenyl)-2-(naphthalen-2-ylsulfonylamino)propanoyl]piperidine-2-carbothioate

> <PUBCHEM_IUPAC_SYSTEMATIC_NAME>
S-[2-[3-[[4-[[[5-(6-aminopurin-9-yl)-4-oxidanyl-3-phosphonooxy-oxolan-2-yl]methoxy-oxidanyl-phosphoryl]oxy-oxidanyl-phosphoryl]oxy-3,3-dimethyl-2-oxidanyl-butanoyl]amino]propanoylamino]ethyl] 1-[3-(3-carbamimidoylphenyl)-2-(naphthalen-2-ylsulfonylamino)propanoyl]piperidine-2-carbothioate

> <PUBCHEM_IUPAC_TRADITIONAL_NAME>
1-[3-(3-amidinophenyl)-2-(2-naphthylsulfonylamino)propanoyl]piperidine-2-carbothioic acid S-[2-[3-[[4-[[(5-adenin-9-yl-4-hydroxy-3-phosphonooxy-tetrahydrofuran-2-yl)methoxy-hydroxy-phosphoryl]oxy-hydroxy-phosphoryl]oxy-2-hydroxy-3,3-dimethyl-butanoyl]amino]propanoylamino]ethyl] ester

> <PUBCHEM_IUPAC_INCHI>
InChI=1S/C47H62N11O20P3S2/c1-47(2,24-75-81(70,71)78-80(68,69)74-23-34-38(77-79(65,66)67)37(60)45(76-34)58-26-55-36-41(50)53-25-54-42(36)58)39(61)43(62)52-16-15-35(59)51-17-19-82-46(64)33-12-5-6-18-57(33)44(63)32(21-27-8-7-11-30(20-27)40(48)49)56-83(72,73)31-14-13-28-9-3-4-10-29(28)22-31/h3-4,7-11,13-14,20,22,25-26,32-34,37-39,45,56,60-61H,5-6,12,15-19,21,23-24H2,1-2H3,(H3,48,49)(H,51,59)(H,52,62)(H,68,69)(H,70,71)(H2,50,53,54)(H2,65,66,67)

> <PUBCHEM_IUPAC_INCHIKEY>
CVACZZSHKLMZGN-UHFFFAOYSA-N

> <PUBCHEM_XLOGP3_AA>
-2.3

> <PUBCHEM_EXACT_MASS>
1257.28268675

> <PUBCHEM_MOLECULAR_FORMULA>
C47H62N11O20P3S2

> <PUBCHEM_MOLECULAR_WEIGHT>
1258.1

> <PUBCHEM_OPENEYE_CAN_SMILES>
CC(C)(COP(=O)(O)OP(=O)(O)OCC1C(C(C(O1)N2C=NC3=C(N=CN=C32)N)O)OP(=O)(O)O)C(C(=O)NCCC(=O)NCCSC(=O)C4CCCCN4C(=O)C(CC5=CC(=CC=C5)C(=N)N)NS(=O)(=O)C6=CC7=CC=CC=C7C=C6)O

> <PUBCHEM_OPENEYE_ISO_SMILES>
CC(C)(COP(=O)(O)OP(=O)(O)OCC1C(C(C(O1)N2C=NC3=C(N=CN=C32)N)O)OP(=O)(O)O)C(C(=O)NCCC(=O)NCCSC(=O)C4CCCCN4C(=O)C(CC5=CC(=CC=C5)C(=N)N)NS(=O)(=O)C6=CC7=CC=CC=C7C=C6)O

> <PUBCHEM_CACTVS_TPSA>
514

> <PUBCHEM_MONOISOTOPIC_WEIGHT>
1257.28268675

> <PUBCHEM_TOTAL_CHARGE>
0

> <PUBCHEM_HEAVY_ATOM_COUNT>
83

> <PUBCHEM_ATOM_DEF_STEREO_COUNT>
0

> <PUBCHEM_ATOM_UDEF_STEREO_COUNT>
7

> <PUBCHEM_BOND_DEF_STEREO_COUNT>
0

> <PUBCHEM_BOND_UDEF_STEREO_COUNT>
0

> <PUBCHEM_ISOTOPIC_ATOM_COUNT>
0

> <PUBCHEM_COMPONENT_COUNT>
1

> <PUBCHEM_CACTVS_TAUTO_COUNT>
-1

> <PUBCHEM_COORDINATE_TYPE>
1
5
255

> <PUBCHEM_BONDANNOTATIONS>
59  21  3
40  26  3
26  47  8
26  48  8
28  48  8
28  51  8
29  47  8
29  57  8
31  54  8
31  57  8
39  41  3
42  52  3
47  51  8
50  53  3
51  54  8
56  64  8
56  65  8
63  69  8
63  71  8
64  68  8
65  70  8
68  72  8
69  74  8
37  7  3
70  72  8
71  76  8
74  77  8
74  80  8
76  77  8
77  81  8
38  8  3
80  82  8
81  83  8
82  83  8

$$$$
155488858
  -OEChem-03012215082D

159163  0     1  0  0  0  0  0999 V2000
   24.5854    0.1437    0.0000 S   0  0  0  0  0  0  0  0  0  0  0  0
   21.4481   -3.1966    0.0000 S   0  0  0  0  0  0  0  0  0  0  0  0
    5.3548   -2.7949    0.0000 P   0  0  0  0  0  0  0  0  0  0  0  0
    8.4752   -4.0347    0.0000 P   0  0  3  0  0  0  0  0  0  0  0  0
   10.1980   -3.8567    0.0000 P   0  0  3  0  0  0  0  0  0  0  0  0
    5.9405   -5.7992    0.0000 O   0  0  0  0  0  0  0  0  0  0  0  0
    4.6844   -3.5369    0.0000 O   0  0  0  0  0  0  0  0  0  0  0  0
    3.4026   -5.2948    0.0000 O   0  0  0  0  0  0  0  0  0  0  0  0
    7.6651   -4.6211    0.0000 O   0  0  0  0  0  0  0  0  0  0  0  0
    6.0252   -2.0530    0.0000 O   0  0  0  0  0  0  0  0  0  0  0  0
    4.6128   -2.1245    0.0000 O   0  0  0  0  0  0  0  0  0  0  0  0
    6.0968   -3.4654    0.0000 O   0  0  0  0  0  0  0  0  0  0  0  0
    9.2852   -3.4484    0.0000 O   0  0  0  0  0  0  0  0  0  0  0  0
    9.0615   -4.8448    0.0000 O   0  0  0  0  0  0  0  0  0  0  0  0
    7.8888   -3.2247    0.0000 O   0  0  0  0  0  0  0  0  0  0  0  0
   11.1109   -4.2650    0.0000 O   0  0  0  0  0  0  0  0  0  0  0  0
   13.8494   -5.4899    0.0000 O   0  0  0  0  0  0  0  0  0  0  0  0
   10.6063   -2.9438    0.0000 O   0  0  0  0  0  0  0  0  0  0  0  0
    9.7897   -4.7695    0.0000 O   0  0  0  0  0  0  0  0  0  0  0  0
   27.0155    1.9028    0.0000 O   0  0  0  0  0  0  0  0  0  0  0  0
   14.4538   -2.9141    0.0000 O   0  0  0  0  0  0  0  0  0  0  0  0
   23.9991    0.9537    0.0000 O   0  0  0  0  0  0  0  0  0  0  0  0
   25.1718   -0.6664    0.0000 O   0  0  0  0  0  0  0  0  0  0  0  0
   25.7943    5.2952    0.0000 O   0  0  0  0  0  0  0  0  0  0  0  0
   17.8996   -2.5580    0.0000 O   0  0  0  0  0  0  0  0  0  0  0  0
   22.4638   -4.5996    0.0000 O   0  0  0  0  0  0  0  0  0  0  0  0
    4.6783   -7.0571    0.0000 N   0  0  0  0  0  0  0  0  0  0  0  0
    4.6783   -8.6665    0.0000 N   0  0  0  0  0  0  0  0  0  0  0  0
    2.8660   -6.8618    0.0000 N   0  0  0  0  0  0  0  0  0  0  0  0
    2.0000   -8.3618    0.0000 N   0  0  0  0  0  0  0  0  0  0  0  0
    2.8660   -9.8618    0.0000 N   0  0  0  0  0  0  0  0  0  0  0  0
   25.3955    0.7300    0.0000 N   0  0  0  0  0  0  0  0  0  0  0  0
   25.9999    3.3058    0.0000 N   0  0  0  0  0  0  0  0  0  0  0  0
   15.4695   -4.3172    0.0000 N   0  0  0  0  0  0  0  0  0  0  0  0
   27.5171    5.4733    0.0000 N   0  0  0  0  0  0  0  0  0  0  0  0
   18.9152   -3.9610    0.0000 N   0  0  0  0  0  0  0  0  0  0  0  0
   30.2557    4.2484    0.0000 N   0  0  0  0  0  0  0  0  0  0  0  0
   29.5484    2.6673    0.0000 N   0  0  0  0  0  0  0  0  0  0  0  0
   30.5517    9.8082    0.0000 N   0  0  0  0  0  0  0  0  0  0  0  0
   31.5673    8.4052    0.0000 N   0  0  0  0  0  0  0  0  0  0  0  0
    4.9917   -4.4885    0.0000 C   0  0  3  0  0  0  0  0  0  0  0  0
    4.4026   -5.2965    0.0000 C   0  0  3  0  0  0  0  0  0  0  0  0
    5.9422   -4.7992    0.0000 C   0  0  3  0  0  0  0  0  0  0  0  0
    4.9889   -6.1066    0.0000 C   0  0  3  0  0  0  0  0  0  0  0  0
    6.7523   -4.2128    0.0000 C   0  0  0  0  0  0  0  0  0  0  0  0
    3.7320   -7.3618    0.0000 C   0  0  0  0  0  0  0  0  0  0  0  0
    5.2619   -7.8618    0.0000 C   0  0  0  0  0  0  0  0  0  0  0  0
    3.7320   -8.3618    0.0000 C   0  0  0  0  0  0  0  0  0  0  0  0
    2.8660   -8.8618    0.0000 C   0  0  0  0  0  0  0  0  0  0  0  0
   12.8337   -4.0869    0.0000 C   0  0  0  0  0  0  0  0  0  0  0  0
    2.0000   -7.3618    0.0000 C   0  0  0  0  0  0  0  0  0  0  0  0
   11.9209   -3.6786    0.0000 C   0  0  0  0  0  0  0  0  0  0  0  0
   13.7466   -4.4952    0.0000 C   0  0  3  0  0  0  0  0  0  0  0  0
   24.3798    2.1331    0.0000 C   0  0  1  0  0  0  0  0  0  0  0  0
   25.2927    1.7248    0.0000 C   0  0  2  0  0  0  0  0  0  0  0  0
   13.2421   -3.1741    0.0000 C   0  0  0  0  0  0  0  0  0  0  0  0
   12.4254   -4.9998    0.0000 C   0  0  0  0  0  0  0  0  0  0  0  0
   24.2770    3.1278    0.0000 C   0  0  0  0  0  0  0  0  0  0  0  0
   23.5698    1.5467    0.0000 C   0  0  0  0  0  0  0  0  0  0  0  0
   26.1027    2.3111    0.0000 C   0  0  0  0  0  0  0  0  0  0  0  0
   14.5566   -3.9088    0.0000 C   0  0  0  0  0  0  0  0  0  0  0  0
   26.8099    3.8922    0.0000 C   0  0  1  0  0  0  0  0  0  0  0  0
   23.3642    3.5361    0.0000 C   0  0  0  0  0  0  0  0  0  0  0  0
   23.7754   -0.4427    0.0000 C   0  0  0  0  0  0  0  0  0  0  0  0
   27.7228    3.4839    0.0000 C   0  0  0  0  0  0  0  0  0  0  0  0
   26.7071    4.8869    0.0000 C   0  0  0  0  0  0  0  0  0  0  0  0
   16.2795   -3.7308    0.0000 C   0  0  0  0  0  0  0  0  0  0  0  0
   23.8782   -1.4374    0.0000 C   0  0  0  0  0  0  0  0  0  0  0  0
   28.5328    4.0703    0.0000 C   0  0  0  0  0  0  0  0  0  0  0  0
   17.1923   -4.1391    0.0000 C   0  0  0  0  0  0  0  0  0  0  0  0
   23.0682   -2.0238    0.0000 C   0  0  0  0  0  0  0  0  0  0  0  0
   24.7910   -1.8457    0.0000 C   0  0  0  0  0  0  0  0  0  0  0  0
   29.4456    3.6620    0.0000 C   0  0  0  0  0  0  0  0  0  0  0  0
   27.4143    6.4680    0.0000 C   0  0  0  0  0  0  0  0  0  0  0  0
   23.1710   -3.0185    0.0000 C   0  0  0  0  0  0  0  0  0  0  0  0
   18.0024   -3.5527    0.0000 C   0  0  0  0  0  0  0  0  0  0  0  0
   24.8939   -2.8404    0.0000 C   0  0  0  0  0  0  0  0  0  0  0  0
   24.0838   -3.4268    0.0000 C   0  0  0  0  0  0  0  0  0  0  0  0
   28.2244    7.0544    0.0000 C   0  0  0  0  0  0  0  0  0  0  0  0
   22.3610   -3.6049    0.0000 C   0  0  0  0  0  0  0  0  0  0  0  0
   19.7252   -3.3746    0.0000 C   0  0  0  0  0  0  0  0  0  0  0  0
   20.6381   -3.7830    0.0000 C   0  0  0  0  0  0  0  0  0  0  0  0
   29.1372    6.6461    0.0000 C   0  0  0  0  0  0  0  0  0  0  0  0
   28.1216    8.0491    0.0000 C   0  0  0  0  0  0  0  0  0  0  0  0
   29.9472    7.2325    0.0000 C   0  0  0  0  0  0  0  0  0  0  0  0
   28.9316    8.6355    0.0000 C   0  0  0  0  0  0  0  0  0  0  0  0
   29.8444    8.2272    0.0000 C   0  0  0  0  0  0  0  0  0  0  0  0
   30.6545    8.8135    0.0000 C   0  0  0  0  0  0  0  0  0  0  0  0
    5.4309   -4.0509    0.0000 H   0  0  0  0  0  0  0  0  0  0  0  0
    4.1220   -4.7436    0.0000 H   0  0  0  0  0  0  0  0  0  0  0  0
    6.4942   -5.0816    0.0000 H   0  0  0  0  0  0  0  0  0  0  0  0
    5.4266   -6.5457    0.0000 H   0  0  0  0  0  0  0  0  0  0  0  0
    7.0999   -3.6994    0.0000 H   0  0  0  0  0  0  0  0  0  0  0  0
    6.3070   -3.7813    0.0000 H   0  0  0  0  0  0  0  0  0  0  0  0
    3.0935   -4.7573    0.0000 H   0  0  0  0  0  0  0  0  0  0  0  0
    5.8819   -7.8618    0.0000 H   0  0  0  0  0  0  0  0  0  0  0  0
    5.8346   -1.4630    0.0000 H   0  0  0  0  0  0  0  0  0  0  0  0
    4.0228   -2.3151    0.0000 H   0  0  0  0  0  0  0  0  0  0  0  0
    1.4631   -7.0518    0.0000 H   0  0  0  0  0  0  0  0  0  0  0  0
   12.2685   -3.1652    0.0000 H   0  0  0  0  0  0  0  0  0  0  0  0
   11.4757   -3.2471    0.0000 H   0  0  0  0  0  0  0  0  0  0  0  0
   13.2444   -4.8588    0.0000 H   0  0  0  0  0  0  0  0  0  0  0  0
   24.4436    1.5164    0.0000 H   0  0  0  0  0  0  0  0  0  0  0  0
   25.8586    1.4716    0.0000 H   0  0  0  0  0  0  0  0  0  0  0  0
    2.3291  -10.1718    0.0000 H   0  0  0  0  0  0  0  0  0  0  0  0
    3.4030  -10.1718    0.0000 H   0  0  0  0  0  0  0  0  0  0  0  0
    8.8084   -5.4107    0.0000 H   0  0  0  0  0  0  0  0  0  0  0  0
   13.8080   -3.4272    0.0000 H   0  0  0  0  0  0  0  0  0  0  0  0
   13.4952   -2.6081    0.0000 H   0  0  0  0  0  0  0  0  0  0  0  0
   12.6761   -2.9209    0.0000 H   0  0  0  0  0  0  0  0  0  0  0  0
   11.8595   -4.7466    0.0000 H   0  0  0  0  0  0  0  0  0  0  0  0
   12.1723   -5.5657    0.0000 H   0  0  0  0  0  0  0  0  0  0  0  0
   12.9914   -5.2529    0.0000 H   0  0  0  0  0  0  0  0  0  0  0  0
   24.8954    3.0834    0.0000 H   0  0  0  0  0  0  0  0  0  0  0  0
   24.4280    3.7291    0.0000 H   0  0  0  0  0  0  0  0  0  0  0  0
   25.9614    0.4769    0.0000 H   0  0  0  0  0  0  0  0  0  0  0  0
   23.2062    2.0489    0.0000 H   0  0  0  0  0  0  0  0  0  0  0  0
   23.0676    1.1831    0.0000 H   0  0  0  0  0  0  0  0  0  0  0  0
   23.9333    1.0445    0.0000 H   0  0  0  0  0  0  0  0  0  0  0  0
   26.8737    3.2755    0.0000 H   0  0  0  0  0  0  0  0  0  0  0  0
   25.4339    3.5590    0.0000 H   0  0  0  0  0  0  0  0  0  0  0  0
   23.6173    4.1020    0.0000 H   0  0  0  0  0  0  0  0  0  0  0  0
   22.7982    3.7892    0.0000 H   0  0  0  0  0  0  0  0  0  0  0  0
   23.1110    2.9701    0.0000 H   0  0  0  0  0  0  0  0  0  0  0  0
   14.4154   -5.7431    0.0000 H   0  0  0  0  0  0  0  0  0  0  0  0
   23.5046    0.1150    0.0000 H   0  0  0  0  0  0  0  0  0  0  0  0
   23.1791   -0.6126    0.0000 H   0  0  0  0  0  0  0  0  0  0  0  0
   27.3752    2.9705    0.0000 H   0  0  0  0  0  0  0  0  0  0  0  0
   28.1680    3.0524    0.0000 H   0  0  0  0  0  0  0  0  0  0  0  0
   10.2428   -2.4416    0.0000 H   0  0  0  0  0  0  0  0  0  0  0  0
   15.5332   -4.9339    0.0000 H   0  0  0  0  0  0  0  0  0  0  0  0
   16.6271   -3.2174    0.0000 H   0  0  0  0  0  0  0  0  0  0  0  0
   15.8342   -3.2993    0.0000 H   0  0  0  0  0  0  0  0  0  0  0  0
   28.8804    4.5837    0.0000 H   0  0  0  0  0  0  0  0  0  0  0  0
   28.0875    4.5018    0.0000 H   0  0  0  0  0  0  0  0  0  0  0  0
   16.8447   -4.6525    0.0000 H   0  0  0  0  0  0  0  0  0  0  0  0
   17.6376   -4.5706    0.0000 H   0  0  0  0  0  0  0  0  0  0  0  0
   28.0831    5.2202    0.0000 H   0  0  0  0  0  0  0  0  0  0  0  0
   22.5022   -1.7706    0.0000 H   0  0  0  0  0  0  0  0  0  0  0  0
   25.2933   -1.4822    0.0000 H   0  0  0  0  0  0  0  0  0  0  0  0
   27.1435    7.0257    0.0000 H   0  0  0  0  0  0  0  0  0  0  0  0
   26.8181    6.2981    0.0000 H   0  0  0  0  0  0  0  0  0  0  0  0
   25.4598   -3.0936    0.0000 H   0  0  0  0  0  0  0  0  0  0  0  0
   24.1476   -4.0435    0.0000 H   0  0  0  0  0  0  0  0  0  0  0  0
   18.9789   -4.5777    0.0000 H   0  0  0  0  0  0  0  0  0  0  0  0
   30.8216    3.9952    0.0000 H   0  0  0  0  0  0  0  0  0  0  0  0
   30.1919    4.8651    0.0000 H   0  0  0  0  0  0  0  0  0  0  0  0
   20.0728   -2.8612    0.0000 H   0  0  0  0  0  0  0  0  0  0  0  0
   19.2800   -2.9432    0.0000 H   0  0  0  0  0  0  0  0  0  0  0  0
   30.1144    2.4141    0.0000 H   0  0  0  0  0  0  0  0  0  0  0  0
   20.2905   -4.2964    0.0000 H   0  0  0  0  0  0  0  0  0  0  0  0
   21.0833   -4.2144    0.0000 H   0  0  0  0  0  0  0  0  0  0  0  0
   29.2010    6.0294    0.0000 H   0  0  0  0  0  0  0  0  0  0  0  0
   27.5556    8.3023    0.0000 H   0  0  0  0  0  0  0  0  0  0  0  0
   30.5132    6.9793    0.0000 H   0  0  0  0  0  0  0  0  0  0  0  0
   28.8679    9.2522    0.0000 H   0  0  0  0  0  0  0  0  0  0  0  0
   31.0539   10.1718    0.0000 H   0  0  0  0  0  0  0  0  0  0  0  0
   29.9857   10.0614    0.0000 H   0  0  0  0  0  0  0  0  0  0  0  0
   32.0695    8.7688    0.0000 H   0  0  0  0  0  0  0  0  0  0  0  0
  1 22  2  0  0  0  0
  1 23  2  0  0  0  0
  1 32  1  0  0  0  0
  1 64  1  0  0  0  0
  2 80  1  0  0  0  0
  2 82  1  0  0  0  0
  3  7  1  0  0  0  0
  3 10  1  0  0  0  0
  3 11  1  0  0  0  0
  3 12  2  0  0  0  0
  4  9  1  0  0  0  0
  4 13  1  0  0  0  0
  4 14  1  0  0  0  0
  4 15  2  0  0  0  0
  5 13  1  0  0  0  0
  5 16  1  0  0  0  0
  5 18  1  0  0  0  0
  5 19  2  0  0  0  0
  6 43  1  0  0  0  0
  6 44  1  0  0  0  0
  7 41  1  0  0  0  0
  8 42  1  0  0  0  0
  8 95  1  0  0  0  0
  9 45  1  0  0  0  0
 10 97  1  0  0  0  0
 11 98  1  0  0  0  0
 14107  1  0  0  0  0
 16 52  1  0  0  0  0
 17 53  1  0  0  0  0
 17125  1  0  0  0  0
 18130  1  0  0  0  0
 20 60  2  0  0  0  0
 21 61  2  0  0  0  0
 24 66  2  0  0  0  0
 25 76  2  0  0  0  0
 26 80  2  0  0  0  0
 27 44  1  0  0  0  0
 27 46  1  0  0  0  0
 27 47  1  0  0  0  0
 28 47  2  0  0  0  0
 28 48  1  0  0  0  0
 29 46  2  0  0  0  0
 29 51  1  0  0  0  0
 30 49  1  0  0  0  0
 30 51  2  0  0  0  0
 31 49  1  0  0  0  0
 31105  1  0  0  0  0
 31106  1  0  0  0  0
 55 32  1  6  0  0  0
 32116  1  0  0  0  0
 33 60  1  0  0  0  0
 62 33  1  6  0  0  0
 33121  1  0  0  0  0
 34 61  1  0  0  0  0
 34 67  1  0  0  0  0
 34131  1  0  0  0  0
 35 66  1  0  0  0  0
 35 74  1  0  0  0  0
 35138  1  0  0  0  0
 36 76  1  0  0  0  0
 36 81  1  0  0  0  0
 36145  1  0  0  0  0
 37 73  1  0  0  0  0
 37146  1  0  0  0  0
 37147  1  0  0  0  0
 38 73  2  0  0  0  0
 38150  1  0  0  0  0
 39 88  1  0  0  0  0
 39157  1  0  0  0  0
 39158  1  0  0  0  0
 40 88  2  0  0  0  0
 40159  1  0  0  0  0
 41 42  1  0  0  0  0
 41 43  1  0  0  0  0
 41 89  1  0  0  0  0
 42 44  1  0  0  0  0
 42 90  1  0  0  0  0
 43 45  1  0  0  0  0
 43 91  1  0  0  0  0
 44 92  1  0  0  0  0
 45 93  1  0  0  0  0
 45 94  1  0  0  0  0
 46 48  1  0  0  0  0
 47 96  1  0  0  0  0
 48 49  2  0  0  0  0
 50 52  1  0  0  0  0
 50 53  1  0  0  0  0
 50 56  1  0  0  0  0
 50 57  1  0  0  0  0
 51 99  1  0  0  0  0
 52100  1  0  0  0  0
 52101  1  0  0  0  0
 53 61  1  0  0  0  0
 53102  1  0  0  0  0
 54 55  1  0  0  0  0
 54 58  1  0  0  0  0
 54 59  1  6  0  0  0
 54103  1  0  0  0  0
 55 60  1  0  0  0  0
 55104  1  0  0  0  0
 56108  1  0  0  0  0
 56109  1  0  0  0  0
 56110  1  0  0  0  0
 57111  1  0  0  0  0
 57112  1  0  0  0  0
 57113  1  0  0  0  0
 58 63  1  0  0  0  0
 58114  1  0  0  0  0
 58115  1  0  0  0  0
 59117  1  0  0  0  0
 59118  1  0  0  0  0
 59119  1  0  0  0  0
 62 65  1  0  0  0  0
 62 66  1  0  0  0  0
 62120  1  0  0  0  0
 63122  1  0  0  0  0
 63123  1  0  0  0  0
 63124  1  0  0  0  0
 64 68  1  0  0  0  0
 64126  1  0  0  0  0
 64127  1  0  0  0  0
 65 69  1  0  0  0  0
 65128  1  0  0  0  0
 65129  1  0  0  0  0
 67 70  1  0  0  0  0
 67132  1  0  0  0  0
 67133  1  0  0  0  0
 68 71  2  0  0  0  0
 68 72  1  0  0  0  0
 69 73  1  0  0  0  0
 69134  1  0  0  0  0
 69135  1  0  0  0  0
 70 76  1  0  0  0  0
 70136  1  0  0  0  0
 70137  1  0  0  0  0
 71 75  1  0  0  0  0
 71139  1  0  0  0  0
 72 77  2  0  0  0  0
 72140  1  0  0  0  0
 74 79  1  0  0  0  0
 74141  1  0  0  0  0
 74142  1  0  0  0  0
 75 78  2  0  0  0  0
 75 80  1  0  0  0  0
 77 78  1  0  0  0  0
 77143  1  0  0  0  0
 78144  1  0  0  0  0
 79 83  2  0  0  0  0
 79 84  1  0  0  0  0
 81 82  1  0  0  0  0
 81148  1  0  0  0  0
 81149  1  0  0  0  0
 82151  1  0  0  0  0
 82152  1  0  0  0  0
 83 85  1  0  0  0  0
 83153  1  0  0  0  0
 84 86  2  0  0  0  0
 84154  1  0  0  0  0
 85 87  2  0  0  0  0
 85155  1  0  0  0  0
 86 87  1  0  0  0  0
 86156  1  0  0  0  0
 87 88  1  0  0  0  0
M  END
> <PUBCHEM_COMPOUND_CID>
155488858

> <PUBCHEM_COMPOUND_CANONICALIZED>
1

> <PUBCHEM_CACTVS_COMPLEXITY>
2680

> <PUBCHEM_CACTVS_HBOND_ACCEPTOR>
29

> <PUBCHEM_CACTVS_HBOND_DONOR>
16

> <PUBCHEM_CACTVS_ROTATABLE_BOND>
36

> <PUBCHEM_CACTVS_SUBSKEYS>
AAADcfB//gNgAAAAAAAAAAAAAAAAAWJAAAA8YIAAAAAAAFgB/AAAHgQQSCAADzzl3wa38L/MFxqoQydzdPLCgC21ELAJ2KH4VNiLeLrg3XGeZQhvlgL7iaf6uUKPQAACAAAAAACAAAQAAAAAAAAAAAAAAA==

> <PUBCHEM_IUPAC_OPENEYE_NAME>
S-[2-[3-[[4-[[[5-(6-aminopurin-9-yl)-4-hydroxy-3-phosphonooxy-tetrahydrofuran-2-yl]methoxy-hydroxy-phosphoryl]oxy-hydroxy-phosphoryl]oxy-2-hydroxy-3,3-dimethyl-butanoyl]amino]propanoylamino]ethyl] 3-[[(1R,2R)-1-[[(1S)-4-amino-1-[(4-carbamimidoylphenyl)methylcarbamoyl]-4-imino-butyl]carbamoyl]-2-methyl-butyl]sulfamoylmethyl]benzenecarbothioate

> <PUBCHEM_IUPAC_CAS_NAME>
3-[[(2R,3R)-1-[[(2S)-5-amino-1-[(4-carbamimidoylphenyl)methylamino]-5-imino-1-oxopentan-2-yl]amino]-3-methyl-1-oxopentan-2-yl]sulfamoylmethyl]benzenecarbothioic acid S-[2-[[3-[[4-[[[5-(6-aminopurin-9-yl)-4-hydroxy-3-phosphonooxy-2-oxolanyl]methoxy-hydroxyphosphoryl]oxy-hydroxyphosphoryl]oxy-2-hydroxy-3,3-dimethyl-1-oxobutyl]amino]-1-oxopropyl]amino]ethyl] ester

> <PUBCHEM_IUPAC_NAME_MARKUP>
<I>S</I>-[2-[3-[[4-[[[5-(6-aminopurin-9-yl)-4-hydroxy-3-phosphonooxyoxolan-2-yl]methoxy-hydroxyphosphoryl]oxy-hydroxyphosphoryl]oxy-2-hydroxy-3,3-dimethylbutanoyl]amino]propanoylamino]ethyl] 3-[[(2<I>R</I>,3<I>R</I>)-1-[[(2<I>S</I>)-5-amino-1-[(4-carbamimidoylphenyl)methylamino]-5-imino-1-oxopentan-2-yl]amino]-3-methyl-1-oxopentan-2-yl]sulfamoylmethyl]benzenecarbothioate

> <PUBCHEM_IUPAC_NAME>
S-[2-[3-[[4-[[[5-(6-aminopurin-9-yl)-4-hydroxy-3-phosphonooxyoxolan-2-yl]methoxy-hydroxyphosphoryl]oxy-hydroxyphosphoryl]oxy-2-hydroxy-3,3-dimethylbutanoyl]amino]propanoylamino]ethyl] 3-[[(2R,3R)-1-[[(2S)-5-amino-1-[(4-carbamimidoylphenyl)methylamino]-5-imino-1-oxopentan-2-yl]amino]-3-methyl-1-oxopentan-2-yl]sulfamoylmethyl]benzenecarbothioate

> <PUBCHEM_IUPAC_SYSTEMATIC_NAME>
S-[2-[3-[[4-[[[5-(6-aminopurin-9-yl)-4-oxidanyl-3-phosphonooxy-oxolan-2-yl]methoxy-oxidanyl-phosphoryl]oxy-oxidanyl-phosphoryl]oxy-3,3-dimethyl-2-oxidanyl-butanoyl]amino]propanoylamino]ethyl] 3-[[(2R,3R)-1-[[(2S)-5-azanyl-5-azanylidene-1-[(4-carbamimidoylphenyl)methylamino]-1-oxidanylidene-pentan-2-yl]amino]-3-methyl-1-oxidanylidene-pentan-2-yl]sulfamoylmethyl]benzenecarbothioate

> <PUBCHEM_IUPAC_TRADITIONAL_NAME>
3-[[(1R,2R)-1-[[(1S)-1-[(4-amidinobenzyl)carbamoyl]-4-amino-4-imino-butyl]carbamoyl]-2-methyl-butyl]sulfamoylmethyl]thiobenzoic acid S-[2-[3-[[4-[[(5-adenin-9-yl-4-hydroxy-3-phosphonooxy-tetrahydrofuran-2-yl)methoxy-hydroxy-phosphoryl]oxy-hydroxy-phosphoryl]oxy-2-hydroxy-3,3-dimethyl-butanoyl]amino]propanoylamino]ethyl] ester

> <PUBCHEM_IUPAC_INCHI>
InChI=1S/C48H71N14O21P3S2/c1-5-26(2)35(44(67)60-31(13-14-33(49)50)43(66)56-20-27-9-11-29(12-10-27)40(51)52)61-88(77,78)22-28-7-6-8-30(19-28)47(69)87-18-17-54-34(63)15-16-55-45(68)39(65)48(3,4)23-80-86(75,76)83-85(73,74)79-21-32-38(82-84(70,71)72)37(64)46(81-32)62-25-59-36-41(53)57-24-58-42(36)62/h6-12,19,24-26,31-32,35,37-39,46,61,64-65H,5,13-18,20-23H2,1-4H3,(H3,49,50)(H3,51,52)(H,54,63)(H,55,68)(H,56,66)(H,60,67)(H,73,74)(H,75,76)(H2,53,57,58)(H2,70,71,72)/t26-,31+,32?,35-,37?,38?,39?,46?/m1/s1

> <PUBCHEM_IUPAC_INCHIKEY>
DHYPUQHRTQEAJK-DMWLLBSUSA-N

> <PUBCHEM_XLOGP3_AA>
-4.9

> <PUBCHEM_EXACT_MASS>
1336.35724867

> <PUBCHEM_MOLECULAR_FORMULA>
C48H71N14O21P3S2

> <PUBCHEM_MOLECULAR_WEIGHT>
1337.2

> <PUBCHEM_OPENEYE_CAN_SMILES>
CCC(C)C(C(=O)NC(CCC(=N)N)C(=O)NCC1=CC=C(C=C1)C(=N)N)NS(=O)(=O)CC2=CC(=CC=C2)C(=O)SCCNC(=O)CCNC(=O)C(C(C)(C)COP(=O)(O)OP(=O)(O)OCC3C(C(C(O3)N4C=NC5=C(N=CN=C54)N)O)OP(=O)(O)O)O

> <PUBCHEM_OPENEYE_ISO_SMILES>
CC[C@@H](C)[C@H](C(=O)N[C@@H](CCC(=N)N)C(=O)NCC1=CC=C(C=C1)C(=N)N)NS(=O)(=O)CC2=CC(=CC=C2)C(=O)SCCNC(=O)CCNC(=O)C(C(C)(C)COP(=O)(O)OP(=O)(O)OCC3C(C(C(O3)N4C=NC5=C(N=CN=C54)N)O)OP(=O)(O)O)O

> <PUBCHEM_CACTVS_TPSA>
601

> <PUBCHEM_MONOISOTOPIC_WEIGHT>
1336.35724867

> <PUBCHEM_TOTAL_CHARGE>
0

> <PUBCHEM_HEAVY_ATOM_COUNT>
88

> <PUBCHEM_ATOM_DEF_STEREO_COUNT>
3

> <PUBCHEM_ATOM_UDEF_STEREO_COUNT>
5

> <PUBCHEM_BOND_DEF_STEREO_COUNT>
0

> <PUBCHEM_BOND_UDEF_STEREO_COUNT>
0

> <PUBCHEM_ISOTOPIC_ATOM_COUNT>
0

> <PUBCHEM_COMPONENT_COUNT>
1

> <PUBCHEM_CACTVS_TAUTO_COUNT>
-1

> <PUBCHEM_COORDINATE_TYPE>
1
5
255

> <PUBCHEM_BONDANNOTATIONS>
53  17  3
44  27  3
27  46  8
27  47  8
28  47  8
28  48  8
29  46  8
29  51  8
30  49  8
30  51  8
55  32  6
62  33  6
43  45  3
46  48  8
48  49  8
54  59  6
68  71  8
68  72  8
41  7  3
71  75  8
72  77  8
75  78  8
77  78  8
79  83  8
79  84  8
42  8  3
83  85  8
84  86  8
85  87  8
86  87  8

$$$$
155488903
  -OEChem-03012215082D

139146  0     1  0  0  0  0  0999 V2000
   23.6994   -1.3521    0.0000 Cl   0  0  0  0  0  0  0  0  0  0  0  0
   27.0592   -2.1960    0.0000 Cl   0  0  0  0  0  0  0  0  0  0  0  0
   21.4481    1.8126    0.0000 S    0  0  0  0  0  0  0  0  0  0  0  0
   26.5354    2.8622    0.0000 S    0  0  0  0  0  0  0  0  0  0  0  0
    5.3548    2.2142    0.0000 P    0  0  0  0  0  0  0  0  0  0  0  0
    8.4752    0.9744    0.0000 P    0  0  3  0  0  0  0  0  0  0  0  0
   10.1980    1.1525    0.0000 P    0  0  3  0  0  0  0  0  0  0  0  0
    5.9405   -0.7900    0.0000 O    0  0  0  0  0  0  0  0  0  0  0  0
    4.6844    1.4722    0.0000 O    0  0  0  0  0  0  0  0  0  0  0  0
    3.4026   -0.2856    0.0000 O    0  0  0  0  0  0  0  0  0  0  0  0
    7.6651    0.3880    0.0000 O    0  0  0  0  0  0  0  0  0  0  0  0
    6.0252    2.9562    0.0000 O    0  0  0  0  0  0  0  0  0  0  0  0
    4.6128    2.8846    0.0000 O    0  0  0  0  0  0  0  0  0  0  0  0
    6.0968    1.5438    0.0000 O    0  0  0  0  0  0  0  0  0  0  0  0
    9.2852    1.5608    0.0000 O    0  0  0  0  0  0  0  0  0  0  0  0
    9.0615    0.1644    0.0000 O    0  0  0  0  0  0  0  0  0  0  0  0
   11.1109    0.7442    0.0000 O    0  0  0  0  0  0  0  0  0  0  0  0
    7.8888    1.7845    0.0000 O    0  0  0  0  0  0  0  0  0  0  0  0
   13.8494   -0.4808    0.0000 O    0  0  0  0  0  0  0  0  0  0  0  0
   10.6063    2.0653    0.0000 O    0  0  0  0  0  0  0  0  0  0  0  0
    9.7897    0.2397    0.0000 O    0  0  0  0  0  0  0  0  0  0  0  0
   14.4538    2.0950    0.0000 O    0  0  0  0  0  0  0  0  0  0  0  0
   17.8996    2.4512    0.0000 O    0  0  0  0  0  0  0  0  0  0  0  0
   22.4638    0.4096    0.0000 O    0  0  0  0  0  0  0  0  0  0  0  0
   23.3766    0.0013    0.0000 O    0  0  0  0  0  0  0  0  0  0  0  0
   29.2316    2.6396    0.0000 O    0  0  0  0  0  0  0  0  0  0  0  0
    4.6783   -2.0479    0.0000 N    0  0  0  0  0  0  0  0  0  0  0  0
    4.6783   -3.6574    0.0000 N    0  0  0  0  0  0  0  0  0  0  0  0
    2.8660   -1.8526    0.0000 N    0  0  0  0  0  0  0  0  0  0  0  0
    2.0000   -3.3526    0.0000 N    0  0  0  0  0  0  0  0  0  0  0  0
    2.8660   -4.8526    0.0000 N    0  0  0  0  0  0  0  0  0  0  0  0
   15.4695    0.6920    0.0000 N    0  0  0  0  0  0  0  0  0  0  0  0
   24.0838    1.5823    0.0000 N    0  0  0  0  0  0  0  0  0  0  0  0
   18.9152    1.0481    0.0000 N    0  0  0  0  0  0  0  0  0  0  0  0
    4.9917    0.5206    0.0000 C    0  0  3  0  0  0  0  0  0  0  0  0
    4.4026   -0.2874    0.0000 C    0  0  3  0  0  0  0  0  0  0  0  0
    5.9422    0.2100    0.0000 C    0  0  3  0  0  0  0  0  0  0  0  0
    4.9889   -1.0974    0.0000 C    0  0  3  0  0  0  0  0  0  0  0  0
    6.7523    0.7964    0.0000 C    0  0  0  0  0  0  0  0  0  0  0  0
    3.7320   -2.3526    0.0000 C    0  0  0  0  0  0  0  0  0  0  0  0
    5.2619   -2.8526    0.0000 C    0  0  0  0  0  0  0  0  0  0  0  0
    3.7320   -3.3526    0.0000 C    0  0  0  0  0  0  0  0  0  0  0  0
    2.8660   -3.8526    0.0000 C    0  0  0  0  0  0  0  0  0  0  0  0
   12.8337    0.9223    0.0000 C    0  0  0  0  0  0  0  0  0  0  0  0
    2.0000   -2.3526    0.0000 C    0  0  0  0  0  0  0  0  0  0  0  0
   11.9209    1.3306    0.0000 C    0  0  0  0  0  0  0  0  0  0  0  0
   13.7466    0.5139    0.0000 C    0  0  3  0  0  0  0  0  0  0  0  0
   13.2421    1.8351    0.0000 C    0  0  0  0  0  0  0  0  0  0  0  0
   12.4254    0.0094    0.0000 C    0  0  0  0  0  0  0  0  0  0  0  0
   14.5566    1.1003    0.0000 C    0  0  0  0  0  0  0  0  0  0  0  0
   16.2795    1.2784    0.0000 C    0  0  0  0  0  0  0  0  0  0  0  0
   17.1923    0.8701    0.0000 C    0  0  0  0  0  0  0  0  0  0  0  0
   23.1710    1.9907    0.0000 C    0  0  3  0  0  0  0  0  0  0  0  0
   23.0682    2.9854    0.0000 C    0  0  0  0  0  0  0  0  0  0  0  0
   18.0024    1.4565    0.0000 C    0  0  0  0  0  0  0  0  0  0  0  0
   24.8939    2.1687    0.0000 C    0  0  0  0  0  0  0  0  0  0  0  0
   22.3610    1.4043    0.0000 C    0  0  0  0  0  0  0  0  0  0  0  0
   23.8782    3.5717    0.0000 C    0  0  0  0  0  0  0  0  0  0  0  0
   24.1866    0.5876    0.0000 C    0  0  0  0  0  0  0  0  0  0  0  0
   25.8913    2.0972    0.0000 C    0  0  0  0  0  0  0  0  0  0  0  0
   19.7252    1.6345    0.0000 C    0  0  0  0  0  0  0  0  0  0  0  0
   20.6381    1.2262    0.0000 C    0  0  0  0  0  0  0  0  0  0  0  0
   24.9048   -0.1083    0.0000 C    0  0  0  0  0  0  0  0  0  0  0  0
   23.7754    4.5664    0.0000 C    0  0  0  0  0  0  0  0  0  0  0  0
   24.7910    3.1634    0.0000 C    0  0  0  0  0  0  0  0  0  0  0  0
   26.4198    1.2483    0.0000 C    0  0  0  0  0  0  0  0  0  0  0  0
   27.4619    2.4860    0.0000 C    0  0  0  0  0  0  0  0  0  0  0  0
   27.3905    1.4885    0.0000 C    0  0  0  0  0  0  0  0  0  0  0  0
   24.5854    5.1528    0.0000 C    0  0  0  0  0  0  0  0  0  0  0  0
   25.6011    3.7498    0.0000 C    0  0  0  0  0  0  0  0  0  0  0  0
   28.3109    3.0144    0.0000 C    0  0  0  0  0  0  0  0  0  0  0  0
   24.6612   -1.0781    0.0000 C    0  0  0  0  0  0  0  0  0  0  0  0
   25.8665    0.1657    0.0000 C    0  0  0  0  0  0  0  0  0  0  0  0
   25.4983    4.7445    0.0000 C    0  0  0  0  0  0  0  0  0  0  0  0
   28.3811    4.0060    0.0000 C    0  0  0  0  0  0  0  0  0  0  0  0
   29.3455    4.2473    0.0000 C    0  0  0  0  0  0  0  0  0  0  0  0
   29.8739    3.3984    0.0000 C    0  0  0  0  0  0  0  0  0  0  0  0
   25.3793   -1.7740    0.0000 C    0  0  0  0  0  0  0  0  0  0  0  0
   26.5846   -0.5302    0.0000 C    0  0  0  0  0  0  0  0  0  0  0  0
   26.3410   -1.5001    0.0000 C    0  0  0  0  0  0  0  0  0  0  0  0
   29.8165    5.1295    0.0000 C    0  0  0  0  0  0  0  0  0  0  0  0
   30.8734    3.4315    0.0000 C    0  0  0  0  0  0  0  0  0  0  0  0
   30.8159    5.1626    0.0000 C    0  0  0  0  0  0  0  0  0  0  0  0
   31.3444    4.3137    0.0000 C    0  0  0  0  0  0  0  0  0  0  0  0
    5.4309    0.9583    0.0000 H    0  0  0  0  0  0  0  0  0  0  0  0
    4.1220    0.2656    0.0000 H    0  0  0  0  0  0  0  0  0  0  0  0
    6.4942   -0.0724    0.0000 H    0  0  0  0  0  0  0  0  0  0  0  0
    5.4266   -1.5366    0.0000 H    0  0  0  0  0  0  0  0  0  0  0  0
    7.0999    1.3098    0.0000 H    0  0  0  0  0  0  0  0  0  0  0  0
    6.3070    1.2278    0.0000 H    0  0  0  0  0  0  0  0  0  0  0  0
    3.0935    0.2518    0.0000 H    0  0  0  0  0  0  0  0  0  0  0  0
    5.8819   -2.8526    0.0000 H    0  0  0  0  0  0  0  0  0  0  0  0
    5.8346    3.5462    0.0000 H    0  0  0  0  0  0  0  0  0  0  0  0
    4.0228    2.6941    0.0000 H    0  0  0  0  0  0  0  0  0  0  0  0
    1.4631   -2.0426    0.0000 H    0  0  0  0  0  0  0  0  0  0  0  0
   12.2685    1.8440    0.0000 H    0  0  0  0  0  0  0  0  0  0  0  0
   11.4757    1.7620    0.0000 H    0  0  0  0  0  0  0  0  0  0  0  0
   13.2444    0.1504    0.0000 H    0  0  0  0  0  0  0  0  0  0  0  0
   13.8080    1.5819    0.0000 H    0  0  0  0  0  0  0  0  0  0  0  0
   13.4952    2.4010    0.0000 H    0  0  0  0  0  0  0  0  0  0  0  0
   12.6761    2.0882    0.0000 H    0  0  0  0  0  0  0  0  0  0  0  0
   11.8595    0.2626    0.0000 H    0  0  0  0  0  0  0  0  0  0  0  0
   12.1723   -0.5565    0.0000 H    0  0  0  0  0  0  0  0  0  0  0  0
   12.9914   -0.2437    0.0000 H    0  0  0  0  0  0  0  0  0  0  0  0
    2.3291   -5.1626    0.0000 H    0  0  0  0  0  0  0  0  0  0  0  0
    3.4030   -5.1626    0.0000 H    0  0  0  0  0  0  0  0  0  0  0  0
    8.8084   -0.4016    0.0000 H    0  0  0  0  0  0  0  0  0  0  0  0
   14.4154   -0.7339    0.0000 H    0  0  0  0  0  0  0  0  0  0  0  0
   15.5332    0.0753    0.0000 H    0  0  0  0  0  0  0  0  0  0  0  0
   10.2428    2.5676    0.0000 H    0  0  0  0  0  0  0  0  0  0  0  0
   16.6271    1.7918    0.0000 H    0  0  0  0  0  0  0  0  0  0  0  0
   15.8342    1.7098    0.0000 H    0  0  0  0  0  0  0  0  0  0  0  0
   16.8447    0.3567    0.0000 H    0  0  0  0  0  0  0  0  0  0  0  0
   17.6376    0.4386    0.0000 H    0  0  0  0  0  0  0  0  0  0  0  0
   23.2347    1.3739    0.0000 H    0  0  0  0  0  0  0  0  0  0  0  0
   22.7974    3.5431    0.0000 H    0  0  0  0  0  0  0  0  0  0  0  0
   22.4719    2.8155    0.0000 H    0  0  0  0  0  0  0  0  0  0  0  0
   25.1137    2.7484    0.0000 H    0  0  0  0  0  0  0  0  0  0  0  0
   24.4015    2.5456    0.0000 H    0  0  0  0  0  0  0  0  0  0  0  0
   18.9789    0.4314    0.0000 H    0  0  0  0  0  0  0  0  0  0  0  0
   20.0728    2.1479    0.0000 H    0  0  0  0  0  0  0  0  0  0  0  0
   19.2800    2.0660    0.0000 H    0  0  0  0  0  0  0  0  0  0  0  0
   20.2905    0.7128    0.0000 H    0  0  0  0  0  0  0  0  0  0  0  0
   21.0833    0.7947    0.0000 H    0  0  0  0  0  0  0  0  0  0  0  0
   23.2094    4.8196    0.0000 H    0  0  0  0  0  0  0  0  0  0  0  0
   24.8548    2.5467    0.0000 H    0  0  0  0  0  0  0  0  0  0  0  0
   26.1865    0.6738    0.0000 H    0  0  0  0  0  0  0  0  0  0  0  0
   27.8647    1.0892    0.0000 H    0  0  0  0  0  0  0  0  0  0  0  0
   24.5217    5.7695    0.0000 H    0  0  0  0  0  0  0  0  0  0  0  0
   26.1670    3.4966    0.0000 H    0  0  0  0  0  0  0  0  0  0  0  0
   26.0175    0.7670    0.0000 H    0  0  0  0  0  0  0  0  0  0  0  0
   26.0005    5.1081    0.0000 H    0  0  0  0  0  0  0  0  0  0  0  0
   27.9062    4.4045    0.0000 H    0  0  0  0  0  0  0  0  0  0  0  0
   25.2283   -2.3754    0.0000 H    0  0  0  0  0  0  0  0  0  0  0  0
   27.1809   -0.3603    0.0000 H    0  0  0  0  0  0  0  0  0  0  0  0
   29.4888    5.6558    0.0000 H    0  0  0  0  0  0  0  0  0  0  0  0
   31.2010    2.9052    0.0000 H    0  0  0  0  0  0  0  0  0  0  0  0
   31.1079    5.7096    0.0000 H    0  0  0  0  0  0  0  0  0  0  0  0
   31.9640    4.3342    0.0000 H    0  0  0  0  0  0  0  0  0  0  0  0
  1 72  1  0  0  0  0
  2 80  1  0  0  0  0
  3 57  1  0  0  0  0
  3 62  1  0  0  0  0
  4 60  1  0  0  0  0
  4 67  1  0  0  0  0
  5  9  1  0  0  0  0
  5 12  1  0  0  0  0
  5 13  1  0  0  0  0
  5 14  2  0  0  0  0
  6 11  1  0  0  0  0
  6 15  1  0  0  0  0
  6 16  1  0  0  0  0
  6 18  2  0  0  0  0
  7 15  1  0  0  0  0
  7 17  1  0  0  0  0
  7 20  1  0  0  0  0
  7 21  2  0  0  0  0
  8 37  1  0  0  0  0
  8 38  1  0  0  0  0
  9 35  1  0  0  0  0
 10 36  1  0  0  0  0
 10 91  1  0  0  0  0
 11 39  1  0  0  0  0
 12 93  1  0  0  0  0
 13 94  1  0  0  0  0
 16107  1  0  0  0  0
 17 46  1  0  0  0  0
 19 47  1  0  0  0  0
 19108  1  0  0  0  0
 20110  1  0  0  0  0
 22 50  2  0  0  0  0
 23 55  2  0  0  0  0
 24 57  2  0  0  0  0
 25 59  2  0  0  0  0
 26 71  1  0  0  0  0
 26 77  1  0  0  0  0
 27 38  1  0  0  0  0
 27 40  1  0  0  0  0
 27 41  1  0  0  0  0
 28 41  2  0  0  0  0
 28 42  1  0  0  0  0
 29 40  2  0  0  0  0
 29 45  1  0  0  0  0
 30 43  1  0  0  0  0
 30 45  2  0  0  0  0
 31 43  1  0  0  0  0
 31105  1  0  0  0  0
 31106  1  0  0  0  0
 32 50  1  0  0  0  0
 32 51  1  0  0  0  0
 32109  1  0  0  0  0
 33 53  1  0  0  0  0
 33 56  1  0  0  0  0
 33 59  1  0  0  0  0
 34 55  1  0  0  0  0
 34 61  1  0  0  0  0
 34120  1  0  0  0  0
 35 36  1  0  0  0  0
 35 37  1  0  0  0  0
 35 85  1  0  0  0  0
 36 38  1  0  0  0  0
 36 86  1  0  0  0  0
 37 39  1  0  0  0  0
 37 87  1  0  0  0  0
 38 88  1  0  0  0  0
 39 89  1  0  0  0  0
 39 90  1  0  0  0  0
 40 42  1  0  0  0  0
 41 92  1  0  0  0  0
 42 43  2  0  0  0  0
 44 46  1  0  0  0  0
 44 47  1  0  0  0  0
 44 48  1  0  0  0  0
 44 49  1  0  0  0  0
 45 95  1  0  0  0  0
 46 96  1  0  0  0  0
 46 97  1  0  0  0  0
 47 50  1  0  0  0  0
 47 98  1  0  0  0  0
 48 99  1  0  0  0  0
 48100  1  0  0  0  0
 48101  1  0  0  0  0
 49102  1  0  0  0  0
 49103  1  0  0  0  0
 49104  1  0  0  0  0
 51 52  1  0  0  0  0
 51111  1  0  0  0  0
 51112  1  0  0  0  0
 52 55  1  0  0  0  0
 52113  1  0  0  0  0
 52114  1  0  0  0  0
 53 54  1  0  0  0  0
 53 57  1  0  0  0  0
 53115  1  0  0  0  0
 54 58  1  0  0  0  0
 54116  1  0  0  0  0
 54117  1  0  0  0  0
 56 60  1  0  0  0  0
 56118  1  0  0  0  0
 56119  1  0  0  0  0
 58 64  2  0  0  0  0
 58 65  1  0  0  0  0
 59 63  1  0  0  0  0
 60 66  2  0  0  0  0
 61 62  1  0  0  0  0
 61121  1  0  0  0  0
 61122  1  0  0  0  0
 62123  1  0  0  0  0
 62124  1  0  0  0  0
 63 72  2  0  0  0  0
 63 73  1  0  0  0  0
 64 69  1  0  0  0  0
 64125  1  0  0  0  0
 65 70  2  0  0  0  0
 65126  1  0  0  0  0
 66 68  1  0  0  0  0
 66127  1  0  0  0  0
 67 68  2  0  0  0  0
 67 71  1  0  0  0  0
 68128  1  0  0  0  0
 69 74  2  0  0  0  0
 69129  1  0  0  0  0
 70 74  1  0  0  0  0
 70130  1  0  0  0  0
 71 75  2  0  0  0  0
 72 78  1  0  0  0  0
 73 79  2  0  0  0  0
 73131  1  0  0  0  0
 74132  1  0  0  0  0
 75 76  1  0  0  0  0
 75133  1  0  0  0  0
 76 77  1  0  0  0  0
 76 81  2  0  0  0  0
 77 82  2  0  0  0  0
 78 80  2  0  0  0  0
 78134  1  0  0  0  0
 79 80  1  0  0  0  0
 79135  1  0  0  0  0
 81 83  1  0  0  0  0
 81136  1  0  0  0  0
 82 84  1  0  0  0  0
 82137  1  0  0  0  0
 83 84  2  0  0  0  0
 83138  1  0  0  0  0
 84139  1  0  0  0  0
M  END
> <PUBCHEM_COMPOUND_CID>
155488903

> <PUBCHEM_COMPOUND_CANONICALIZED>
1

> <PUBCHEM_CACTVS_COMPLEXITY>
2400

> <PUBCHEM_CACTVS_HBOND_ACCEPTOR>
25

> <PUBCHEM_CACTVS_HBOND_DONOR>
9

> <PUBCHEM_CACTVS_ROTATABLE_BOND>
28

> <PUBCHEM_CACTVS_SUBSKEYS>
AAADcfB//gNmAAAAAAAAAAAAAAAAAWJEiQA8YMEAAAAAAFgB/gAAHgYQCCAADj7l3ya39//MF1isQ6dzdIKDiK01PbBJ2LnuXtiPfjrl/3uefSjv1hP7raf6+OKPBAAAAACJAAAIAAAAARIAAAAAAAAAAA==

> <PUBCHEM_IUPAC_OPENEYE_NAME>
S-[2-[3-[[4-[[[5-(6-aminopurin-9-yl)-4-hydroxy-3-phosphonooxy-tetrahydrofuran-2-yl]methoxy-hydroxy-phosphoryl]oxy-hydroxy-phosphoryl]oxy-2-hydroxy-3,3-dimethyl-butanoyl]amino]propanoylamino]ethyl] 2-[[5-(benzofuran-2-yl)-2-thienyl]methyl-(2,4-dichlorobenzoyl)amino]-3-phenyl-propanethioate

> <PUBCHEM_IUPAC_CAS_NAME>
2-[[5-(2-benzofuranyl)-2-thiophenyl]methyl-[(2,4-dichlorophenyl)-oxomethyl]amino]-3-phenylpropanethioic acid S-[2-[[3-[[4-[[[5-(6-aminopurin-9-yl)-4-hydroxy-3-phosphonooxy-2-oxolanyl]methoxy-hydroxyphosphoryl]oxy-hydroxyphosphoryl]oxy-2-hydroxy-3,3-dimethyl-1-oxobutyl]amino]-1-oxopropyl]amino]ethyl] ester

> <PUBCHEM_IUPAC_NAME_MARKUP>
<I>S</I>-[2-[3-[[4-[[[5-(6-aminopurin-9-yl)-4-hydroxy-3-phosphonooxyoxolan-2-yl]methoxy-hydroxyphosphoryl]oxy-hydroxyphosphoryl]oxy-2-hydroxy-3,3-dimethylbutanoyl]amino]propanoylamino]ethyl] 2-[[5-(1-benzofuran-2-yl)thiophen-2-yl]methyl-(2,4-dichlorobenzoyl)amino]-3-phenylpropanethioate

> <PUBCHEM_IUPAC_NAME>
S-[2-[3-[[4-[[[5-(6-aminopurin-9-yl)-4-hydroxy-3-phosphonooxyoxolan-2-yl]methoxy-hydroxyphosphoryl]oxy-hydroxyphosphoryl]oxy-2-hydroxy-3,3-dimethylbutanoyl]amino]propanoylamino]ethyl] 2-[[5-(1-benzofuran-2-yl)thiophen-2-yl]methyl-(2,4-dichlorobenzoyl)amino]-3-phenylpropanethioate

> <PUBCHEM_IUPAC_SYSTEMATIC_NAME>
S-[2-[3-[[4-[[[5-(6-aminopurin-9-yl)-4-oxidanyl-3-phosphonooxy-oxolan-2-yl]methoxy-oxidanyl-phosphoryl]oxy-oxidanyl-phosphoryl]oxy-3,3-dimethyl-2-oxidanyl-butanoyl]amino]propanoylamino]ethyl] 2-[[5-(1-benzofuran-2-yl)thiophen-2-yl]methyl-(2,4-dichlorophenyl)carbonyl-amino]-3-phenyl-propanethioate

> <PUBCHEM_IUPAC_TRADITIONAL_NAME>
2-[[5-(benzofuran-2-yl)-2-thienyl]methyl-(2,4-dichlorobenzoyl)amino]-3-phenyl-propanethioic acid S-[2-[3-[[4-[[(5-adenin-9-yl-4-hydroxy-3-phosphonooxy-tetrahydrofuran-2-yl)methoxy-hydroxy-phosphoryl]oxy-hydroxy-phosphoryl]oxy-2-hydroxy-3,3-dimethyl-butanoyl]amino]propanoylamino]ethyl] ester

> <PUBCHEM_IUPAC_INCHI>
InChI=1S/C50H55Cl2N8O19P3S2/c1-50(2,25-75-82(72,73)79-81(70,71)74-24-37-42(78-80(67,68)69)41(62)48(77-37)60-27-58-40-44(53)56-26-57-45(40)60)43(63)46(64)55-17-16-39(61)54-18-19-83-49(66)34(20-28-8-4-3-5-9-28)59(47(65)32-14-12-30(51)22-33(32)52)23-31-13-15-38(84-31)36-21-29-10-6-7-11-35(29)76-36/h3-15,21-22,26-27,34,37,41-43,48,62-63H,16-20,23-25H2,1-2H3,(H,54,61)(H,55,64)(H,70,71)(H,72,73)(H2,53,56,57)(H2,67,68,69)

> <PUBCHEM_IUPAC_INCHIKEY>
FMOBMKYMCJABDK-UHFFFAOYSA-N

> <PUBCHEM_XLOGP3_AA>
2.1

> <PUBCHEM_EXACT_MASS>
1298.1614803

> <PUBCHEM_MOLECULAR_FORMULA>
C50H55Cl2N8O19P3S2

> <PUBCHEM_MOLECULAR_WEIGHT>
1300.0

> <PUBCHEM_OPENEYE_CAN_SMILES>
CC(C)(COP(=O)(O)OP(=O)(O)OCC1C(C(C(O1)N2C=NC3=C(N=CN=C32)N)O)OP(=O)(O)O)C(C(=O)NCCC(=O)NCCSC(=O)C(CC4=CC=CC=C4)N(CC5=CC=C(S5)C6=CC7=CC=CC=C7O6)C(=O)C8=C(C=C(C=C8)Cl)Cl)O

> <PUBCHEM_OPENEYE_ISO_SMILES>
CC(C)(COP(=O)(O)OP(=O)(O)OCC1C(C(C(O1)N2C=NC3=C(N=CN=C32)N)O)OP(=O)(O)O)C(C(=O)NCCC(=O)NCCSC(=O)C(CC4=CC=CC=C4)N(CC5=CC=C(S5)C6=CC7=CC=CC=C7O6)C(=O)C8=C(C=C(C=C8)Cl)Cl)O

> <PUBCHEM_CACTVS_TPSA>
451

> <PUBCHEM_MONOISOTOPIC_WEIGHT>
1298.1614803

> <PUBCHEM_TOTAL_CHARGE>
0

> <PUBCHEM_HEAVY_ATOM_COUNT>
84

> <PUBCHEM_ATOM_DEF_STEREO_COUNT>
0

> <PUBCHEM_ATOM_UDEF_STEREO_COUNT>
6

> <PUBCHEM_BOND_DEF_STEREO_COUNT>
0

> <PUBCHEM_BOND_UDEF_STEREO_COUNT>
0

> <PUBCHEM_ISOTOPIC_ATOM_COUNT>
0

> <PUBCHEM_COMPONENT_COUNT>
1

> <PUBCHEM_CACTVS_TAUTO_COUNT>
-1

> <PUBCHEM_COORDINATE_TYPE>
1
5
255

> <PUBCHEM_BONDANNOTATIONS>
36  10  3
47  19  3
26  71  8
26  77  8
38  27  3
27  40  8
27  41  8
28  41  8
28  42  8
29  40  8
29  45  8
30  43  8
30  45  8
37  39  3
4  60  8
4  67  8
40  42  8
42  43  8
53  54  3
58  64  8
58  65  8
60  66  8
63  72  8
63  73  8
64  69  8
65  70  8
66  68  8
67  68  8
69  74  8
70  74  8
71  75  8
72  78  8
73  79  8
75  76  8
76  77  8
76  81  8
77  82  8
78  80  8
79  80  8
81  83  8
82  84  8
83  84  8
35  9  3

$$$$
155489175
  -OEChem-03012215082D

162167  0     1  0  0  0  0  0999 V2000
    6.6350   -0.8204    0.0000 S   0  0  0  0  0  0  0  0  0  0  0  0
    7.7331    4.5456    0.0000 P   0  0  3  0  0  0  0  0  0  0  0  0
   18.4411  -10.6871    0.0000 P   0  0  0  0  0  0  0  0  0  0  0  0
    8.5991    6.0456    0.0000 P   0  0  3  0  0  0  0  0  0  0  0  0
   18.1350   -6.8826    0.0000 P   0  0  3  0  0  0  0  0  0  0  0  0
    3.4030    0.0456    0.0000 P   0  0  0  0  0  0  0  0  0  0  0  0
   16.6350   -6.0165    0.0000 P   0  0  3  0  0  0  0  0  0  0  0  0
    6.0010    3.5456    0.0000 O   0  0  0  0  0  0  0  0  0  0  0  0
    6.0010    0.5456    0.0000 O   0  0  0  0  0  0  0  0  0  0  0  0
   21.1295   -8.7192    0.0000 O   0  0  0  0  0  0  0  0  0  0  0  0
    7.7331    3.5456    0.0000 O   0  0  0  0  0  0  0  0  0  0  0  0
    4.2690    1.5456    0.0000 O   0  0  0  0  0  0  0  0  0  0  0  0
   18.7501   -9.7361    0.0000 O   0  0  0  0  0  0  0  0  0  0  0  0
   10.4357    9.0402    0.0000 O   0  0  0  0  0  0  0  0  0  0  0  0
   20.3669  -11.1918    0.0000 O   0  0  0  0  0  0  0  0  0  0  0  0
   18.6350   -7.7486    0.0000 O   0  0  0  0  0  0  0  0  0  0  0  0
    4.2690    4.5456    0.0000 O   0  0  0  0  0  0  0  0  0  0  0  0
    4.2690   -0.4544    0.0000 O   0  0  0  0  0  0  0  0  0  0  0  0
   11.4526    6.6608    0.0000 O   0  0  0  0  0  0  0  0  0  0  0  0
   12.9084    8.2775    0.0000 O   0  0  0  0  0  0  0  0  0  0  0  0
    9.4651    6.5456    0.0000 O   0  0  0  0  0  0  0  0  0  0  0  0
    7.7331    5.5456    0.0000 O   0  0  0  0  0  0  0  0  0  0  0  0
    8.7331    4.5456    0.0000 O   0  0  0  0  0  0  0  0  0  0  0  0
    8.5991    3.0456    0.0000 O   0  0  0  0  0  0  0  0  0  0  0  0
    6.7331    4.5456    0.0000 O   0  0  0  0  0  0  0  0  0  0  0  0
   18.1321  -11.6382    0.0000 O   0  0  0  0  0  0  0  0  0  0  0  0
   17.4901  -10.3781    0.0000 O   0  0  0  0  0  0  0  0  0  0  0  0
    5.1350   -1.6864    0.0000 O   0  0  0  0  0  0  0  0  0  0  0  0
   19.3922  -10.9962    0.0000 O   0  0  0  0  0  0  0  0  0  0  0  0
   17.6350   -6.0165    0.0000 O   0  0  0  0  0  0  0  0  0  0  0  0
    8.0991    6.9117    0.0000 O   0  0  0  0  0  0  0  0  0  0  0  0
   19.0010   -6.3826    0.0000 O   0  0  0  0  0  0  0  0  0  0  0  0
    9.0991    5.1796    0.0000 O   0  0  0  0  0  0  0  0  0  0  0  0
   13.4029    9.4571    0.0000 O   0  0  0  0  0  0  0  0  0  0  0  0
   17.2690   -7.3826    0.0000 O   0  0  0  0  0  0  0  0  0  0  0  0
    2.9030   -0.8204    0.0000 O   0  0  0  0  0  0  0  0  0  0  0  0
    2.5369    0.5456    0.0000 O   0  0  0  0  0  0  0  0  0  0  0  0
   15.6350   -6.0165    0.0000 O   0  0  0  0  0  0  0  0  0  0  0  0
    3.9030    0.9117    0.0000 O   0  0  0  0  0  0  0  0  0  0  0  0
   13.0408   12.9022    0.0000 O   0  0  0  0  0  0  0  0  0  0  0  0
   12.6350   -6.0165    0.0000 O   0  0  0  0  0  0  0  0  0  0  0  0
   16.6350   -7.0165    0.0000 O   0  0  0  0  0  0  0  0  0  0  0  0
   16.6350   -5.0165    0.0000 O   0  0  0  0  0  0  0  0  0  0  0  0
   13.1350   -3.4185    0.0000 O   0  0  0  0  0  0  0  0  0  0  0  0
   10.1350   -1.6864    0.0000 O   0  0  0  0  0  0  0  0  0  0  0  0
    7.7331    1.5456    0.0000 N   0  0  0  0  0  0  0  0  0  0  0  0
   22.2510  -10.1040    0.0000 N   0  0  0  0  0  0  0  0  0  0  0  0
   11.8206   10.1616    0.0000 N   0  0  0  0  0  0  0  0  0  0  0  0
   23.8519  -10.2695    0.0000 N   0  0  0  0  0  0  0  0  0  0  0  0
   21.8704  -11.8866    0.0000 N   0  0  0  0  0  0  0  0  0  0  0  0
   13.2218   11.1797    0.0000 N   0  0  0  0  0  0  0  0  0  0  0  0
   23.2735  -12.9022    0.0000 N   0  0  0  0  0  0  0  0  0  0  0  0
   24.8545  -12.1950    0.0000 N   0  0  0  0  0  0  0  0  0  0  0  0
    8.6350   -2.5524    0.0000 N   0  0  0  0  0  0  0  0  0  0  0  0
   11.6350   -4.2845    0.0000 N   0  0  0  0  0  0  0  0  0  0  0  0
    6.0010    1.5456    0.0000 C   0  0  3  0  0  0  0  0  0  0  0  0
    6.8671    2.0456    0.0000 C   0  0  3  0  0  0  0  0  0  0  0  0
    5.1350    2.0456    0.0000 C   0  0  3  0  0  0  0  0  0  0  0  0
    5.1350    3.0456    0.0000 C   0  0  3  0  0  0  0  0  0  0  0  0
    6.8671    3.0456    0.0000 C   0  0  3  0  0  0  0  0  0  0  0  0
   19.7283   -9.5282    0.0000 C   0  0  3  0  0  0  0  0  0  0  0  0
   20.4714  -10.1973    0.0000 C   0  0  3  0  0  0  0  0  0  0  0  0
   20.1350   -8.6146    0.0000 C   0  0  3  0  0  0  0  0  0  0  0  0
   21.3374   -9.6973    0.0000 C   0  0  3  0  0  0  0  0  0  0  0  0
    4.2690    3.5456    0.0000 C   0  0  0  0  0  0  0  0  0  0  0  0
   19.6350   -7.7486    0.0000 C   0  0  0  0  0  0  0  0  0  0  0  0
   11.2447    7.6389    0.0000 C   0  0  3  0  0  0  0  0  0  0  0  0
   10.3312    8.0456    0.0000 C   0  0  3  0  0  0  0  0  0  0  0  0
   11.9138    8.3820    0.0000 C   0  0  3  0  0  0  0  0  0  0  0  0
    5.1350    0.0456    0.0000 C   0  0  3  0  0  0  0  0  0  0  0  0
   11.4138    9.2481    0.0000 C   0  0  3  0  0  0  0  0  0  0  0  0
    9.4651    7.5456    0.0000 C   0  0  0  0  0  0  0  0  0  0  0  0
   22.4568  -11.0766    0.0000 C   0  0  0  0  0  0  0  0  0  0  0  0
    8.5991    2.0456    0.0000 C   0  0  0  0  0  0  0  0  0  0  0  0
   23.1115   -9.6062    0.0000 C   0  0  0  0  0  0  0  0  0  0  0  0
    4.6350    0.9117    0.0000 C   0  0  0  0  0  0  0  0  0  0  0  0
    5.6350   -0.8204    0.0000 C   0  0  0  0  0  0  0  0  0  0  0  0
   23.4515  -11.1794    0.0000 C   0  0  0  0  0  0  0  0  0  0  0  0
    9.4651    1.5456    0.0000 C   0  0  0  0  0  0  0  0  0  0  0  0
   12.8151   10.2661    0.0000 C   0  0  0  0  0  0  0  0  0  0  0  0
   11.2328   10.9706    0.0000 C   0  0  0  0  0  0  0  0  0  0  0  0
   23.8598  -12.0922    0.0000 C   0  0  0  0  0  0  0  0  0  0  0  0
   11.6395   11.8842    0.0000 C   0  0  0  0  0  0  0  0  0  0  0  0
   22.2788  -12.7994    0.0000 C   0  0  0  0  0  0  0  0  0  0  0  0
   14.1350   -5.1505    0.0000 C   0  0  0  0  0  0  0  0  0  0  0  0
    7.1350   -1.6864    0.0000 C   0  0  0  0  0  0  0  0  0  0  0  0
   12.6341   11.9887    0.0000 C   0  0  0  0  0  0  0  0  0  0  0  0
   15.1350   -5.1505    0.0000 C   0  0  0  0  0  0  0  0  0  0  0  0
   13.1350   -5.1505    0.0000 C   0  0  3  0  0  0  0  0  0  0  0  0
    8.1350   -1.6864    0.0000 C   0  0  0  0  0  0  0  0  0  0  0  0
   14.1350   -6.1505    0.0000 C   0  0  0  0  0  0  0  0  0  0  0  0
   14.1350   -4.1505    0.0000 C   0  0  0  0  0  0  0  0  0  0  0  0
   12.6350   -4.2845    0.0000 C   0  0  0  0  0  0  0  0  0  0  0  0
   11.1350   -3.4185    0.0000 C   0  0  0  0  0  0  0  0  0  0  0  0
   10.1350   -3.4185    0.0000 C   0  0  0  0  0  0  0  0  0  0  0  0
    9.6350   -2.5524    0.0000 C   0  0  0  0  0  0  0  0  0  0  0  0
    6.5380    1.2356    0.0000 H   0  0  0  0  0  0  0  0  0  0  0  0
    6.8671    1.4256    0.0000 H   0  0  0  0  0  0  0  0  0  0  0  0
    4.5981    2.3556    0.0000 H   0  0  0  0  0  0  0  0  0  0  0  0
    5.1350    3.6656    0.0000 H   0  0  0  0  0  0  0  0  0  0  0  0
    7.4040    2.7356    0.0000 H   0  0  0  0  0  0  0  0  0  0  0  0
   19.3381   -9.0463    0.0000 H   0  0  0  0  0  0  0  0  0  0  0  0
   19.8926  -10.4195    0.0000 H   0  0  0  0  0  0  0  0  0  0  0  0
   20.4727   -8.0946    0.0000 H   0  0  0  0  0  0  0  0  0  0  0  0
   21.3699  -10.3164    0.0000 H   0  0  0  0  0  0  0  0  0  0  0  0
    7.7331    0.9256    0.0000 H   0  0  0  0  0  0  0  0  0  0  0  0
    3.6584    3.6533    0.0000 H   0  0  0  0  0  0  0  0  0  0  0  0
    4.0569    2.9630    0.0000 H   0  0  0  0  0  0  0  0  0  0  0  0
   20.2176   -7.5365    0.0000 H   0  0  0  0  0  0  0  0  0  0  0  0
   19.5273   -7.1380    0.0000 H   0  0  0  0  0  0  0  0  0  0  0  0
   11.8436    7.4784    0.0000 H   0  0  0  0  0  0  0  0  0  0  0  0
    9.8112    8.3833    0.0000 H   0  0  0  0  0  0  0  0  0  0  0  0
   12.2515    8.9020    0.0000 H   0  0  0  0  0  0  0  0  0  0  0  0
   12.0330    9.2805    0.0000 H   0  0  0  0  0  0  0  0  0  0  0  0
    3.7320    1.8556    0.0000 H   0  0  0  0  0  0  0  0  0  0  0  0
   19.8005  -11.4440    0.0000 H   0  0  0  0  0  0  0  0  0  0  0  0
    9.2531    8.1282    0.0000 H   0  0  0  0  0  0  0  0  0  0  0  0
    8.8546    7.4380    0.0000 H   0  0  0  0  0  0  0  0  0  0  0  0
   23.1752   -8.9895    0.0000 H   0  0  0  0  0  0  0  0  0  0  0  0
    5.1720    1.2217    0.0000 H   0  0  0  0  0  0  0  0  0  0  0  0
    4.3250    1.4486    0.0000 H   0  0  0  0  0  0  0  0  0  0  0  0
    4.0981    0.6017    0.0000 H   0  0  0  0  0  0  0  0  0  0  0  0
    3.7320    4.8556    0.0000 H   0  0  0  0  0  0  0  0  0  0  0  0
   12.0423    6.4692    0.0000 H   0  0  0  0  0  0  0  0  0  0  0  0
   13.1605    7.7111    0.0000 H   0  0  0  0  0  0  0  0  0  0  0  0
    9.1551    1.0087    0.0000 H   0  0  0  0  0  0  0  0  0  0  0  0
   10.0021    1.2356    0.0000 H   0  0  0  0  0  0  0  0  0  0  0  0
    9.7751    2.0826    0.0000 H   0  0  0  0  0  0  0  0  0  0  0  0
   10.6162   10.9058    0.0000 H   0  0  0  0  0  0  0  0  0  0  0  0
    9.0431    4.0087    0.0000 H   0  0  0  0  0  0  0  0  0  0  0  0
   13.8384   11.2445    0.0000 H   0  0  0  0  0  0  0  0  0  0  0  0
   11.2751   12.3858    0.0000 H   0  0  0  0  0  0  0  0  0  0  0  0
   17.5256  -11.7671    0.0000 H   0  0  0  0  0  0  0  0  0  0  0  0
   17.0293  -10.7930    0.0000 H   0  0  0  0  0  0  0  0  0  0  0  0
   21.9152  -13.3017    0.0000 H   0  0  0  0  0  0  0  0  0  0  0  0
    6.5524   -1.8985    0.0000 H   0  0  0  0  0  0  0  0  0  0  0  0
    7.2427   -2.2970    0.0000 H   0  0  0  0  0  0  0  0  0  0  0  0
   15.7176   -4.9385    0.0000 H   0  0  0  0  0  0  0  0  0  0  0  0
   15.0273   -4.5399    0.0000 H   0  0  0  0  0  0  0  0  0  0  0  0
    7.4791    6.9117    0.0000 H   0  0  0  0  0  0  0  0  0  0  0  0
   12.5150   -5.1505    0.0000 H   0  0  0  0  0  0  0  0  0  0  0  0
   25.1077  -12.7610    0.0000 H   0  0  0  0  0  0  0  0  0  0  0  0
   25.2181  -11.6928    0.0000 H   0  0  0  0  0  0  0  0  0  0  0  0
   19.0010   -5.7626    0.0000 H   0  0  0  0  0  0  0  0  0  0  0  0
    8.7176   -1.4744    0.0000 H   0  0  0  0  0  0  0  0  0  0  0  0
    8.0274   -1.0758    0.0000 H   0  0  0  0  0  0  0  0  0  0  0  0
   13.5150   -6.1505    0.0000 H   0  0  0  0  0  0  0  0  0  0  0  0
   14.1350   -6.7705    0.0000 H   0  0  0  0  0  0  0  0  0  0  0  0
   14.7550   -6.1505    0.0000 H   0  0  0  0  0  0  0  0  0  0  0  0
   14.7550   -4.1505    0.0000 H   0  0  0  0  0  0  0  0  0  0  0  0
   14.1350   -3.5305    0.0000 H   0  0  0  0  0  0  0  0  0  0  0  0
   13.5150   -4.1505    0.0000 H   0  0  0  0  0  0  0  0  0  0  0  0
    2.2830   -0.8204    0.0000 H   0  0  0  0  0  0  0  0  0  0  0  0
    2.0000    0.2356    0.0000 H   0  0  0  0  0  0  0  0  0  0  0  0
    8.3250   -3.0894    0.0000 H   0  0  0  0  0  0  0  0  0  0  0  0
   12.9450   -6.5535    0.0000 H   0  0  0  0  0  0  0  0  0  0  0  0
   11.3250   -4.8214    0.0000 H   0  0  0  0  0  0  0  0  0  0  0  0
   11.7176   -3.2064    0.0000 H   0  0  0  0  0  0  0  0  0  0  0  0
   11.0273   -2.8079    0.0000 H   0  0  0  0  0  0  0  0  0  0  0  0
   16.0981   -7.3265    0.0000 H   0  0  0  0  0  0  0  0  0  0  0  0
    9.5524   -3.6305    0.0000 H   0  0  0  0  0  0  0  0  0  0  0  0
   10.2427   -4.0290    0.0000 H   0  0  0  0  0  0  0  0  0  0  0  0
  1 77  1  0  0  0  0
  1 86  1  0  0  0  0
  2 11  1  0  0  0  0
  2 22  1  0  0  0  0
  2 23  1  0  0  0  0
  2 25  2  0  0  0  0
  3 13  1  0  0  0  0
  3 26  1  0  0  0  0
  3 27  1  0  0  0  0
  3 29  2  0  0  0  0
  4 21  1  0  0  0  0
  4 22  1  0  0  0  0
  4 31  1  0  0  0  0
  4 33  2  0  0  0  0
  5 16  1  0  0  0  0
  5 30  1  0  0  0  0
  5 32  1  0  0  0  0
  5 35  2  0  0  0  0
  6 18  1  0  0  0  0
  6 36  1  0  0  0  0
  6 37  1  0  0  0  0
  6 39  2  0  0  0  0
  7 30  1  0  0  0  0
  7 38  1  0  0  0  0
  7 42  1  0  0  0  0
  7 43  2  0  0  0  0
  8 59  1  0  0  0  0
  8 60  1  0  0  0  0
  9 56  1  0  0  0  0
  9 70  1  0  0  0  0
 10 63  1  0  0  0  0
 10 64  1  0  0  0  0
 11 60  1  0  0  0  0
 12 58  1  0  0  0  0
 12115  1  0  0  0  0
 13 61  1  0  0  0  0
 14 68  1  0  0  0  0
 14 71  1  0  0  0  0
 15 62  1  0  0  0  0
 15116  1  0  0  0  0
 16 66  1  0  0  0  0
 17 65  1  0  0  0  0
 17123  1  0  0  0  0
 18 70  1  0  0  0  0
 19 67  1  0  0  0  0
 19124  1  0  0  0  0
 20 69  1  0  0  0  0
 20125  1  0  0  0  0
 21 72  1  0  0  0  0
 23130  1  0  0  0  0
 24 74  2  0  0  0  0
 26133  1  0  0  0  0
 27134  1  0  0  0  0
 28 77  2  0  0  0  0
 31140  1  0  0  0  0
 32144  1  0  0  0  0
 34 80  2  0  0  0  0
 36153  1  0  0  0  0
 37154  1  0  0  0  0
 38 88  1  0  0  0  0
 40 87  2  0  0  0  0
 41 89  1  0  0  0  0
 41156  1  0  0  0  0
 42160  1  0  0  0  0
 44 93  2  0  0  0  0
 45 96  2  0  0  0  0
 46 57  1  0  0  0  0
 46 74  1  0  0  0  0
 46106  1  0  0  0  0
 47 64  1  0  0  0  0
 47 73  1  0  0  0  0
 47 75  1  0  0  0  0
 48 71  1  0  0  0  0
 48 80  1  0  0  0  0
 48 81  1  0  0  0  0
 49 75  2  0  0  0  0
 49 78  1  0  0  0  0
 50 73  2  0  0  0  0
 50 84  1  0  0  0  0
 51 80  1  0  0  0  0
 51 87  1  0  0  0  0
 51131  1  0  0  0  0
 52 82  1  0  0  0  0
 52 84  2  0  0  0  0
 53 82  1  0  0  0  0
 53142  1  0  0  0  0
 53143  1  0  0  0  0
 54 90  1  0  0  0  0
 54 96  1  0  0  0  0
 54155  1  0  0  0  0
 55 93  1  0  0  0  0
 55 94  1  0  0  0  0
 55157  1  0  0  0  0
 56 57  1  0  0  0  0
 56 58  1  0  0  0  0
 56 97  1  0  0  0  0
 57 60  1  0  0  0  0
 57 98  1  0  0  0  0
 58 59  1  0  0  0  0
 58 99  1  0  0  0  0
 59 65  1  0  0  0  0
 59100  1  0  0  0  0
 60101  1  0  0  0  0
 61 62  1  0  0  0  0
 61 63  1  0  0  0  0
 61102  1  0  0  0  0
 62 64  1  0  0  0  0
 62103  1  0  0  0  0
 63 66  1  0  0  0  0
 63104  1  0  0  0  0
 64105  1  0  0  0  0
 65107  1  0  0  0  0
 65108  1  0  0  0  0
 66109  1  0  0  0  0
 66110  1  0  0  0  0
 67 68  1  0  0  0  0
 67 69  1  0  0  0  0
 67111  1  0  0  0  0
 68 72  1  0  0  0  0
 68112  1  0  0  0  0
 69 71  1  0  0  0  0
 69113  1  0  0  0  0
 70 76  1  0  0  0  0
 70 77  1  0  0  0  0
 71114  1  0  0  0  0
 72117  1  0  0  0  0
 72118  1  0  0  0  0
 73 78  1  0  0  0  0
 74 79  1  0  0  0  0
 75119  1  0  0  0  0
 76120  1  0  0  0  0
 76121  1  0  0  0  0
 76122  1  0  0  0  0
 78 82  2  0  0  0  0
 79126  1  0  0  0  0
 79127  1  0  0  0  0
 79128  1  0  0  0  0
 81 83  2  0  0  0  0
 81129  1  0  0  0  0
 83 87  1  0  0  0  0
 83132  1  0  0  0  0
 84135  1  0  0  0  0
 85 88  1  0  0  0  0
 85 89  1  0  0  0  0
 85 91  1  0  0  0  0
 85 92  1  0  0  0  0
 86 90  1  0  0  0  0
 86136  1  0  0  0  0
 86137  1  0  0  0  0
 88138  1  0  0  0  0
 88139  1  0  0  0  0
 89 93  1  0  0  0  0
 89141  1  0  0  0  0
 90145  1  0  0  0  0
 90146  1  0  0  0  0
 91147  1  0  0  0  0
 91148  1  0  0  0  0
 91149  1  0  0  0  0
 92150  1  0  0  0  0
 92151  1  0  0  0  0
 92152  1  0  0  0  0
 94 95  1  0  0  0  0
 94158  1  0  0  0  0
 94159  1  0  0  0  0
 95 96  1  0  0  0  0
 95161  1  0  0  0  0
 95162  1  0  0  0  0
M  END
> <PUBCHEM_COMPOUND_CID>
155489175

> <PUBCHEM_COMPOUND_CANONICALIZED>
1

> <PUBCHEM_CACTVS_COMPLEXITY>
3140

> <PUBCHEM_CACTVS_HBOND_ACCEPTOR>
43

> <PUBCHEM_CACTVS_HBOND_DONOR>
19

> <PUBCHEM_CACTVS_ROTATABLE_BOND>
35

> <PUBCHEM_CACTVS_SUBSKEYS>
AAADcfB//gPAAAAAAAAAAAAAAAAAAWJEgAAsSIAAAAAAAFgB+AAAHgQQCCAADjz11weH+L/MFxioQSd3dIKAgC0RErAJUKFoVFCTWBpgyEQfRAgPFyL3AOHycAcJAAAAAAAAAAAAAAAAAAAAAAAAAAAAAA==

> <PUBCHEM_IUPAC_OPENEYE_NAME>
S-[2-[3-[[4-[[[5-(6-aminopurin-9-yl)-4-hydroxy-3-phosphonooxy-tetrahydrofuran-2-yl]methoxy-hydroxy-phosphoryl]oxy-hydroxy-phosphoryl]oxy-2-hydroxy-3,3-dimethyl-butanoyl]amino]propanoylamino]ethyl] 2-[3-acetamido-2-[[[5-(2,4-dioxopyrimidin-1-yl)-3,4-dihydroxy-tetrahydrofuran-2-yl]methoxy-hydroxy-phosphoryl]oxy-hydroxy-phosphoryl]oxy-5-hydroxy-6-(hydroxymethyl)tetrahydropyran-4-yl]oxy-2-phosphonooxy-propanethioate

> <PUBCHEM_IUPAC_CAS_NAME>
2-[[3-acetamido-2-[[[5-(2,4-dioxo-1-pyrimidinyl)-3,4-dihydroxy-2-oxolanyl]methoxy-hydroxyphosphoryl]oxy-hydroxyphosphoryl]oxy-5-hydroxy-6-(hydroxymethyl)-4-oxanyl]oxy]-2-phosphonooxypropanethioic acid S-[2-[[3-[[4-[[[5-(6-aminopurin-9-yl)-4-hydroxy-3-phosphonooxy-2-oxolanyl]methoxy-hydroxyphosphoryl]oxy-hydroxyphosphoryl]oxy-2-hydroxy-3,3-dimethyl-1-oxobutyl]amino]-1-oxopropyl]amino]ethyl] ester

> <PUBCHEM_IUPAC_NAME_MARKUP>
<I>S</I>-[2-[3-[[4-[[[5-(6-aminopurin-9-yl)-4-hydroxy-3-phosphonooxyoxolan-2-yl]methoxy-hydroxyphosphoryl]oxy-hydroxyphosphoryl]oxy-2-hydroxy-3,3-dimethylbutanoyl]amino]propanoylamino]ethyl] 2-[3-acetamido-2-[[[5-(2,4-dioxopyrimidin-1-yl)-3,4-dihydroxyoxolan-2-yl]methoxy-hydroxyphosphoryl]oxy-hydroxyphosphoryl]oxy-5-hydroxy-6-(hydroxymethyl)oxan-4-yl]oxy-2-phosphonooxypropanethioate

> <PUBCHEM_IUPAC_NAME>
S-[2-[3-[[4-[[[5-(6-aminopurin-9-yl)-4-hydroxy-3-phosphonooxyoxolan-2-yl]methoxy-hydroxyphosphoryl]oxy-hydroxyphosphoryl]oxy-2-hydroxy-3,3-dimethylbutanoyl]amino]propanoylamino]ethyl] 2-[3-acetamido-2-[[[5-(2,4-dioxopyrimidin-1-yl)-3,4-dihydroxyoxolan-2-yl]methoxy-hydroxyphosphoryl]oxy-hydroxyphosphoryl]oxy-5-hydroxy-6-(hydroxymethyl)oxan-4-yl]oxy-2-phosphonooxypropanethioate

> <PUBCHEM_IUPAC_SYSTEMATIC_NAME>
S-[2-[3-[[4-[[[5-(6-aminopurin-9-yl)-4-oxidanyl-3-phosphonooxy-oxolan-2-yl]methoxy-oxidanyl-phosphoryl]oxy-oxidanyl-phosphoryl]oxy-3,3-dimethyl-2-oxidanyl-butanoyl]amino]propanoylamino]ethyl] 2-[3-acetamido-2-[[[5-[2,4-bis(oxidanylidene)pyrimidin-1-yl]-3,4-bis(oxidanyl)oxolan-2-yl]methoxy-oxidanyl-phosphoryl]oxy-oxidanyl-phosphoryl]oxy-6-(hydroxymethyl)-5-oxidanyl-oxan-4-yl]oxy-2-phosphonooxy-propanethioate

> <PUBCHEM_IUPAC_TRADITIONAL_NAME>
2-[3-acetamido-2-[[[5-(2,4-diketopyrimidin-1-yl)-3,4-dihydroxy-tetrahydrofuran-2-yl]methoxy-hydroxy-phosphoryl]oxy-hydroxy-phosphoryl]oxy-5-hydroxy-6-methylol-tetrahydropyran-4-yl]oxy-2-phosphonooxy-propanethioic acid S-[2-[3-[[4-[[(5-adenin-9-yl-4-hydroxy-3-phosphonooxy-tetrahydrofuran-2-yl)methoxy-hydroxy-phosphoryl]oxy-hydroxy-phosphoryl]oxy-2-hydroxy-3,3-dimethyl-butanoyl]amino]propanoylamino]ethyl] ester

> <PUBCHEM_IUPAC_INCHI>
InChI=1S/C41H66N10O38P6S/c1-17(53)48-23-30(26(57)18(11-52)83-37(23)86-95(76,77)89-93(72,73)78-12-19-25(56)27(58)35(81-19)50-9-6-22(55)49-39(50)63)84-41(4,87-91(67,68)69)38(62)96-10-8-43-21(54)5-7-44-34(61)31(60)40(2,3)14-80-94(74,75)88-92(70,71)79-13-20-29(85-90(64,65)66)28(59)36(82-20)51-16-47-24-32(42)45-15-46-33(24)51/h6,9,15-16,18-20,23,25-31,35-37,52,56-60H,5,7-8,10-14H2,1-4H3,(H,43,54)(H,44,61)(H,48,53)(H,70,71)(H,72,73)(H,74,75)(H,76,77)(H2,42,45,46)(H,49,55,63)(H2,64,65,66)(H2,67,68,69)

> <PUBCHEM_IUPAC_INCHIKEY>
LHISKDCQLBYETD-UHFFFAOYSA-N

> <PUBCHEM_XLOGP3_AA>
-13.4

> <PUBCHEM_EXACT_MASS>
1524.1685908

> <PUBCHEM_MOLECULAR_FORMULA>
C41H66N10O38P6S

> <PUBCHEM_MOLECULAR_WEIGHT>
1524.9

> <PUBCHEM_OPENEYE_CAN_SMILES>
CC(=O)NC1C(C(C(OC1OP(=O)(O)OP(=O)(O)OCC2C(C(C(O2)N3C=CC(=O)NC3=O)O)O)CO)O)OC(C)(C(=O)SCCNC(=O)CCNC(=O)C(C(C)(C)COP(=O)(O)OP(=O)(O)OCC4C(C(C(O4)N5C=NC6=C(N=CN=C65)N)O)OP(=O)(O)O)O)OP(=O)(O)O

> <PUBCHEM_OPENEYE_ISO_SMILES>
CC(=O)NC1C(C(C(OC1OP(=O)(O)OP(=O)(O)OCC2C(C(C(O2)N3C=CC(=O)NC3=O)O)O)CO)O)OC(C)(C(=O)SCCNC(=O)CCNC(=O)C(C(C)(C)COP(=O)(O)OP(=O)(O)OCC4C(C(C(O4)N5C=NC6=C(N=CN=C65)N)O)OP(=O)(O)O)O)OP(=O)(O)O

> <PUBCHEM_CACTVS_TPSA>
745

> <PUBCHEM_MONOISOTOPIC_WEIGHT>
1524.1685908

> <PUBCHEM_TOTAL_CHARGE>
0

> <PUBCHEM_HEAVY_ATOM_COUNT>
96

> <PUBCHEM_ATOM_DEF_STEREO_COUNT>
0

> <PUBCHEM_ATOM_UDEF_STEREO_COUNT>
15

> <PUBCHEM_BOND_DEF_STEREO_COUNT>
0

> <PUBCHEM_BOND_UDEF_STEREO_COUNT>
0

> <PUBCHEM_ISOTOPIC_ATOM_COUNT>
0

> <PUBCHEM_COMPONENT_COUNT>
1

> <PUBCHEM_CACTVS_TAUTO_COUNT>
-1

> <PUBCHEM_COORDINATE_TYPE>
1
5
255

> <PUBCHEM_BONDANNOTATIONS>
60  11  3
58  12  3
61  13  3
62  15  3
67  19  3
69  20  3
89  41  3
57  46  3
64  47  3
47  73  8
47  75  8
71  48  3
48  80  8
48  81  8
49  75  8
49  78  8
50  73  8
50  84  8
51  80  8
51  87  8
52  82  8
52  84  8
59  65  3
63  66  3
68  72  3
70  76  3
73  78  8
78  82  8
81  83  8
83  87  8
56  9  3

$$$$
155489226
  -OEChem-03012215082D

135140  0     1  0  0  0  0  0999 V2000
   21.4481    1.0493    0.0000 S   0  0  0  0  0  0  0  0  0  0  0  0
    5.3548    1.4510    0.0000 P   0  0  0  0  0  0  0  0  0  0  0  0
    8.4752    0.2112    0.0000 P   0  0  3  0  0  0  0  0  0  0  0  0
   10.1980    0.3892    0.0000 P   0  0  3  0  0  0  0  0  0  0  0  0
   23.3766   -0.7620    0.0000 F   0  0  0  0  0  0  0  0  0  0  0  0
    5.9405   -1.5533    0.0000 O   0  0  0  0  0  0  0  0  0  0  0  0
    4.6844    0.7090    0.0000 O   0  0  0  0  0  0  0  0  0  0  0  0
    3.4026   -1.0489    0.0000 O   0  0  0  0  0  0  0  0  0  0  0  0
    7.6651   -0.3752    0.0000 O   0  0  0  0  0  0  0  0  0  0  0  0
    6.0252    2.1930    0.0000 O   0  0  0  0  0  0  0  0  0  0  0  0
    4.6128    2.1214    0.0000 O   0  0  0  0  0  0  0  0  0  0  0  0
    6.0968    0.7805    0.0000 O   0  0  0  0  0  0  0  0  0  0  0  0
    9.2852    0.7976    0.0000 O   0  0  0  0  0  0  0  0  0  0  0  0
    9.0615   -0.5989    0.0000 O   0  0  0  0  0  0  0  0  0  0  0  0
   11.1109   -0.0191    0.0000 O   0  0  0  0  0  0  0  0  0  0  0  0
    7.8888    1.0212    0.0000 O   0  0  0  0  0  0  0  0  0  0  0  0
   13.8494   -1.2440    0.0000 O   0  0  0  0  0  0  0  0  0  0  0  0
   10.6063    1.3021    0.0000 O   0  0  0  0  0  0  0  0  0  0  0  0
    9.7897   -0.5236    0.0000 O   0  0  0  0  0  0  0  0  0  0  0  0
   14.4538    1.3318    0.0000 O   0  0  0  0  0  0  0  0  0  0  0  0
   27.3157   -3.0717    0.0000 O   0  0  0  0  0  0  0  0  0  0  0  0
   25.2023   -1.5786    0.0000 O   0  0  0  0  0  0  0  0  0  0  0  0
   26.6167    1.5835    0.0000 O   0  0  0  0  0  0  0  0  0  0  0  0
   17.8996    1.6879    0.0000 O   0  0  0  0  0  0  0  0  0  0  0  0
   22.4638   -0.3537    0.0000 O   0  0  0  0  0  0  0  0  0  0  0  0
    4.6783   -2.8112    0.0000 N   0  0  0  0  0  0  0  0  0  0  0  0
    4.6783   -4.4206    0.0000 N   0  0  0  0  0  0  0  0  0  0  0  0
    2.8660   -2.6159    0.0000 N   0  0  0  0  0  0  0  0  0  0  0  0
    2.0000   -4.1159    0.0000 N   0  0  0  0  0  0  0  0  0  0  0  0
    2.8660   -5.6159    0.0000 N   0  0  0  0  0  0  0  0  0  0  0  0
   15.4695   -0.0713    0.0000 N   0  0  0  0  0  0  0  0  0  0  0  0
   18.9152    0.2849    0.0000 N   0  0  0  0  0  0  0  0  0  0  0  0
   23.0682    2.2221    0.0000 N   0  0  0  0  0  0  0  0  0  0  0  0
   26.2055    5.5623    0.0000 N   0  0  0  0  0  0  0  0  0  0  0  0
   27.2211    4.1593    0.0000 N   0  0  0  0  0  0  0  0  0  0  0  0
    4.9917   -0.2426    0.0000 C   0  0  3  0  0  0  0  0  0  0  0  0
    4.4026   -1.0506    0.0000 C   0  0  3  0  0  0  0  0  0  0  0  0
    5.9422   -0.5533    0.0000 C   0  0  3  0  0  0  0  0  0  0  0  0
    4.9889   -1.8606    0.0000 C   0  0  3  0  0  0  0  0  0  0  0  0
    6.7523    0.0331    0.0000 C   0  0  0  0  0  0  0  0  0  0  0  0
    3.7320   -3.1159    0.0000 C   0  0  0  0  0  0  0  0  0  0  0  0
    5.2619   -3.6159    0.0000 C   0  0  0  0  0  0  0  0  0  0  0  0
    3.7320   -4.1159    0.0000 C   0  0  0  0  0  0  0  0  0  0  0  0
    2.8660   -4.6159    0.0000 C   0  0  0  0  0  0  0  0  0  0  0  0
   12.8337    0.1590    0.0000 C   0  0  0  0  0  0  0  0  0  0  0  0
    2.0000   -3.1159    0.0000 C   0  0  0  0  0  0  0  0  0  0  0  0
   11.9209    0.5673    0.0000 C   0  0  0  0  0  0  0  0  0  0  0  0
   13.7466   -0.2493    0.0000 C   0  0  3  0  0  0  0  0  0  0  0  0
   13.2421    1.0718    0.0000 C   0  0  0  0  0  0  0  0  0  0  0  0
   12.4254   -0.7538    0.0000 C   0  0  0  0  0  0  0  0  0  0  0  0
   14.5566    0.3371    0.0000 C   0  0  0  0  0  0  0  0  0  0  0  0
   26.1151   -1.9870    0.0000 C   0  0  2  0  0  0  0  0  0  0  0  0
   26.9820   -1.4884    0.0000 C   0  0  0  0  0  0  0  0  0  0  0  0
   16.2795    0.5151    0.0000 C   0  0  0  0  0  0  0  0  0  0  0  0
   26.3213   -2.9655    0.0000 C   0  0  0  0  0  0  0  0  0  0  0  0
   27.7240   -2.1589    0.0000 C   0  0  0  0  0  0  0  0  0  0  0  0
   17.1923    0.1068    0.0000 C   0  0  0  0  0  0  0  0  0  0  0  0
   25.0995   -0.5839    0.0000 C   0  0  0  0  0  0  0  0  0  0  0  0
   18.0024    0.6932    0.0000 C   0  0  0  0  0  0  0  0  0  0  0  0
   24.0838    0.8191    0.0000 C   0  0  0  0  0  0  0  0  0  0  0  0
   23.1710    1.2274    0.0000 C   0  0  2  0  0  0  0  0  0  0  0  0
   24.1866   -0.1756    0.0000 C   0  0  0  0  0  0  0  0  0  0  0  0
   25.9095    0.0024    0.0000 C   0  0  0  0  0  0  0  0  0  0  0  0
   24.8939    1.4055    0.0000 C   0  0  0  0  0  0  0  0  0  0  0  0
   25.8067    0.9972    0.0000 C   0  0  0  0  0  0  0  0  0  0  0  0
   19.7252    0.8713    0.0000 C   0  0  0  0  0  0  0  0  0  0  0  0
   22.3610    0.6410    0.0000 C   0  0  0  0  0  0  0  0  0  0  0  0
   20.6381    0.4629    0.0000 C   0  0  0  0  0  0  0  0  0  0  0  0
   23.8782    2.8085    0.0000 C   0  0  0  0  0  0  0  0  0  0  0  0
   27.5296    1.1752    0.0000 C   0  0  0  0  0  0  0  0  0  0  0  0
   24.7910    2.4002    0.0000 C   0  0  0  0  0  0  0  0  0  0  0  0
   23.7754    3.8032    0.0000 C   0  0  0  0  0  0  0  0  0  0  0  0
   25.6011    2.9865    0.0000 C   0  0  0  0  0  0  0  0  0  0  0  0
   24.5854    4.3896    0.0000 C   0  0  0  0  0  0  0  0  0  0  0  0
   25.4983    3.9812    0.0000 C   0  0  0  0  0  0  0  0  0  0  0  0
   28.3396    1.7616    0.0000 C   0  0  0  0  0  0  0  0  0  0  0  0
   26.3083    4.5676    0.0000 C   0  0  0  0  0  0  0  0  0  0  0  0
    5.4309    0.1950    0.0000 H   0  0  0  0  0  0  0  0  0  0  0  0
    4.1220   -0.4977    0.0000 H   0  0  0  0  0  0  0  0  0  0  0  0
    6.4942   -0.8357    0.0000 H   0  0  0  0  0  0  0  0  0  0  0  0
    5.4266   -2.2998    0.0000 H   0  0  0  0  0  0  0  0  0  0  0  0
    7.0999    0.5465    0.0000 H   0  0  0  0  0  0  0  0  0  0  0  0
    6.3070    0.4646    0.0000 H   0  0  0  0  0  0  0  0  0  0  0  0
    3.0935   -0.5114    0.0000 H   0  0  0  0  0  0  0  0  0  0  0  0
    5.8819   -3.6159    0.0000 H   0  0  0  0  0  0  0  0  0  0  0  0
    5.8346    2.7829    0.0000 H   0  0  0  0  0  0  0  0  0  0  0  0
    4.0228    1.9308    0.0000 H   0  0  0  0  0  0  0  0  0  0  0  0
    1.4631   -2.8059    0.0000 H   0  0  0  0  0  0  0  0  0  0  0  0
   12.2685    1.0807    0.0000 H   0  0  0  0  0  0  0  0  0  0  0  0
   11.4757    0.9988    0.0000 H   0  0  0  0  0  0  0  0  0  0  0  0
   13.2444   -0.6129    0.0000 H   0  0  0  0  0  0  0  0  0  0  0  0
   13.8080    0.8187    0.0000 H   0  0  0  0  0  0  0  0  0  0  0  0
   13.4952    1.6378    0.0000 H   0  0  0  0  0  0  0  0  0  0  0  0
   12.6761    1.3250    0.0000 H   0  0  0  0  0  0  0  0  0  0  0  0
   11.8595   -0.5007    0.0000 H   0  0  0  0  0  0  0  0  0  0  0  0
   12.1723   -1.3198    0.0000 H   0  0  0  0  0  0  0  0  0  0  0  0
   12.9914   -1.0070    0.0000 H   0  0  0  0  0  0  0  0  0  0  0  0
    8.8084   -1.1648    0.0000 H   0  0  0  0  0  0  0  0  0  0  0  0
    2.3291   -5.9259    0.0000 H   0  0  0  0  0  0  0  0  0  0  0  0
    3.4030   -5.9259    0.0000 H   0  0  0  0  0  0  0  0  0  0  0  0
   14.4154   -1.4972    0.0000 H   0  0  0  0  0  0  0  0  0  0  0  0
   15.5332   -0.6880    0.0000 H   0  0  0  0  0  0  0  0  0  0  0  0
   26.0837   -1.3678    0.0000 H   0  0  0  0  0  0  0  0  0  0  0  0
   10.2428    1.8043    0.0000 H   0  0  0  0  0  0  0  0  0  0  0  0
   27.4435   -1.0744    0.0000 H   0  0  0  0  0  0  0  0  0  0  0  0
   26.6185   -0.9862    0.0000 H   0  0  0  0  0  0  0  0  0  0  0  0
   16.6271    1.0285    0.0000 H   0  0  0  0  0  0  0  0  0  0  0  0
   15.8342    0.9466    0.0000 H   0  0  0  0  0  0  0  0  0  0  0  0
   25.7046   -3.0292    0.0000 H   0  0  0  0  0  0  0  0  0  0  0  0
   26.3203   -3.5855    0.0000 H   0  0  0  0  0  0  0  0  0  0  0  0
   28.2604   -2.4698    0.0000 H   0  0  0  0  0  0  0  0  0  0  0  0
   28.0893   -1.6579    0.0000 H   0  0  0  0  0  0  0  0  0  0  0  0
   16.8447   -0.4066    0.0000 H   0  0  0  0  0  0  0  0  0  0  0  0
   17.6376   -0.3246    0.0000 H   0  0  0  0  0  0  0  0  0  0  0  0
   22.6050    1.4806    0.0000 H   0  0  0  0  0  0  0  0  0  0  0  0
   26.4755   -0.2507    0.0000 H   0  0  0  0  0  0  0  0  0  0  0  0
   24.8301    2.0222    0.0000 H   0  0  0  0  0  0  0  0  0  0  0  0
   18.9789   -0.3318    0.0000 H   0  0  0  0  0  0  0  0  0  0  0  0
   20.0728    1.3847    0.0000 H   0  0  0  0  0  0  0  0  0  0  0  0
   19.2800    1.3027    0.0000 H   0  0  0  0  0  0  0  0  0  0  0  0
   22.5022    2.4753    0.0000 H   0  0  0  0  0  0  0  0  0  0  0  0
   20.2905   -0.0505    0.0000 H   0  0  0  0  0  0  0  0  0  0  0  0
   21.0833    0.0315    0.0000 H   0  0  0  0  0  0  0  0  0  0  0  0
   27.1820    0.6618    0.0000 H   0  0  0  0  0  0  0  0  0  0  0  0
   27.9748    0.7438    0.0000 H   0  0  0  0  0  0  0  0  0  0  0  0
   24.8548    1.7834    0.0000 H   0  0  0  0  0  0  0  0  0  0  0  0
   23.2094    4.0563    0.0000 H   0  0  0  0  0  0  0  0  0  0  0  0
   26.1670    2.7334    0.0000 H   0  0  0  0  0  0  0  0  0  0  0  0
   24.5217    5.0063    0.0000 H   0  0  0  0  0  0  0  0  0  0  0  0
   28.7032    1.2594    0.0000 H   0  0  0  0  0  0  0  0  0  0  0  0
   28.8418    2.1252    0.0000 H   0  0  0  0  0  0  0  0  0  0  0  0
   27.9760    2.2638    0.0000 H   0  0  0  0  0  0  0  0  0  0  0  0
   26.7077    5.9259    0.0000 H   0  0  0  0  0  0  0  0  0  0  0  0
   25.6395    5.8155    0.0000 H   0  0  0  0  0  0  0  0  0  0  0  0
   27.7234    4.5229    0.0000 H   0  0  0  0  0  0  0  0  0  0  0  0
  1 67  1  0  0  0  0
  1 68  1  0  0  0  0
  2  7  1  0  0  0  0
  2 10  1  0  0  0  0
  2 11  1  0  0  0  0
  2 12  2  0  0  0  0
  3  9  1  0  0  0  0
  3 13  1  0  0  0  0
  3 14  1  0  0  0  0
  3 16  2  0  0  0  0
  4 13  1  0  0  0  0
  4 15  1  0  0  0  0
  4 18  1  0  0  0  0
  4 19  2  0  0  0  0
  5 62  1  0  0  0  0
  6 38  1  0  0  0  0
  6 39  1  0  0  0  0
  7 36  1  0  0  0  0
  8 37  1  0  0  0  0
  8 84  1  0  0  0  0
  9 40  1  0  0  0  0
 10 86  1  0  0  0  0
 11 87  1  0  0  0  0
 14 98  1  0  0  0  0
 15 47  1  0  0  0  0
 17 48  1  0  0  0  0
 17101  1  0  0  0  0
 18104  1  0  0  0  0
 20 51  2  0  0  0  0
 21 55  1  0  0  0  0
 21 56  1  0  0  0  0
 52 22  1  6  0  0  0
 22 58  1  0  0  0  0
 23 65  1  0  0  0  0
 23 70  1  0  0  0  0
 24 59  2  0  0  0  0
 25 67  2  0  0  0  0
 26 39  1  0  0  0  0
 26 41  1  0  0  0  0
 26 42  1  0  0  0  0
 27 42  2  0  0  0  0
 27 43  1  0  0  0  0
 28 41  2  0  0  0  0
 28 46  1  0  0  0  0
 29 44  1  0  0  0  0
 29 46  2  0  0  0  0
 30 44  1  0  0  0  0
 30 99  1  0  0  0  0
 30100  1  0  0  0  0
 31 51  1  0  0  0  0
 31 54  1  0  0  0  0
 31102  1  0  0  0  0
 32 59  1  0  0  0  0
 32 66  1  0  0  0  0
 32118  1  0  0  0  0
 61 33  1  6  0  0  0
 33 69  1  0  0  0  0
 33121  1  0  0  0  0
 34 77  1  0  0  0  0
 34133  1  0  0  0  0
 34134  1  0  0  0  0
 35 77  2  0  0  0  0
 35135  1  0  0  0  0
 36 37  1  0  0  0  0
 36 38  1  0  0  0  0
 36 78  1  0  0  0  0
 37 39  1  0  0  0  0
 37 79  1  0  0  0  0
 38 40  1  0  0  0  0
 38 80  1  0  0  0  0
 39 81  1  0  0  0  0
 40 82  1  0  0  0  0
 40 83  1  0  0  0  0
 41 43  1  0  0  0  0
 42 85  1  0  0  0  0
 43 44  2  0  0  0  0
 45 47  1  0  0  0  0
 45 48  1  0  0  0  0
 45 49  1  0  0  0  0
 45 50  1  0  0  0  0
 46 88  1  0  0  0  0
 47 89  1  0  0  0  0
 47 90  1  0  0  0  0
 48 51  1  0  0  0  0
 48 91  1  0  0  0  0
 49 92  1  0  0  0  0
 49 93  1  0  0  0  0
 49 94  1  0  0  0  0
 50 95  1  0  0  0  0
 50 96  1  0  0  0  0
 50 97  1  0  0  0  0
 52 53  1  0  0  0  0
 52 55  1  0  0  0  0
 52103  1  0  0  0  0
 53 56  1  0  0  0  0
 53105  1  0  0  0  0
 53106  1  0  0  0  0
 54 57  1  0  0  0  0
 54107  1  0  0  0  0
 54108  1  0  0  0  0
 55109  1  0  0  0  0
 55110  1  0  0  0  0
 56111  1  0  0  0  0
 56112  1  0  0  0  0
 57 59  1  0  0  0  0
 57113  1  0  0  0  0
 57114  1  0  0  0  0
 58 62  1  0  0  0  0
 58 63  2  0  0  0  0
 60 61  1  0  0  0  0
 60 62  2  0  0  0  0
 60 64  1  0  0  0  0
 61 67  1  0  0  0  0
 61115  1  0  0  0  0
 63 65  1  0  0  0  0
 63116  1  0  0  0  0
 64 65  2  0  0  0  0
 64117  1  0  0  0  0
 66 68  1  0  0  0  0
 66119  1  0  0  0  0
 66120  1  0  0  0  0
 68122  1  0  0  0  0
 68123  1  0  0  0  0
 69 71  2  0  0  0  0
 69 72  1  0  0  0  0
 70 76  1  0  0  0  0
 70124  1  0  0  0  0
 70125  1  0  0  0  0
 71 73  1  0  0  0  0
 71126  1  0  0  0  0
 72 74  2  0  0  0  0
 72127  1  0  0  0  0
 73 75  2  0  0  0  0
 73128  1  0  0  0  0
 74 75  1  0  0  0  0
 74129  1  0  0  0  0
 75 77  1  0  0  0  0
 76130  1  0  0  0  0
 76131  1  0  0  0  0
 76132  1  0  0  0  0
M  END
> <PUBCHEM_COMPOUND_CID>
155489226

> <PUBCHEM_COMPOUND_CANONICALIZED>
1

> <PUBCHEM_CACTVS_COMPLEXITY>
2140

> <PUBCHEM_CACTVS_HBOND_ACCEPTOR>
28

> <PUBCHEM_CACTVS_HBOND_DONOR>
12

> <PUBCHEM_CACTVS_ROTATABLE_BOND>
29

> <PUBCHEM_CACTVS_SUBSKEYS>
AAADcfB//wNAAAAAAAAAAAAAAAAAAWJEgAA8YIAAAAAAAFgB/AAAHwQQCCAADjzl3w639r/MFxioQydzdIKCiC2xMrAJ2KHufJiPf7rk/fuefCjv1hf76Cf6/L7PCAABCAAAAAAQAAIQAAAAAAAAAAAAAA==

> <PUBCHEM_IUPAC_OPENEYE_NAME>
S-[2-[3-[[4-[[[5-(6-aminopurin-9-yl)-4-hydroxy-3-phosphonooxy-tetrahydrofuran-2-yl]methoxy-hydroxy-phosphoryl]oxy-hydroxy-phosphoryl]oxy-2-hydroxy-3,3-dimethyl-butanoyl]amino]propanoylamino]ethyl] (2R)-2-(4-carbamimidoylanilino)-2-[5-ethoxy-2-fluoro-3-[(3R)-tetrahydrofuran-3-yl]oxy-phenyl]ethanethioate

> <PUBCHEM_IUPAC_CAS_NAME>
(2R)-2-(4-carbamimidoylanilino)-2-[5-ethoxy-2-fluoro-3-[[(3R)-3-oxolanyl]oxy]phenyl]ethanethioic acid S-[2-[[3-[[4-[[[5-(6-aminopurin-9-yl)-4-hydroxy-3-phosphonooxy-2-oxolanyl]methoxy-hydroxyphosphoryl]oxy-hydroxyphosphoryl]oxy-2-hydroxy-3,3-dimethyl-1-oxobutyl]amino]-1-oxopropyl]amino]ethyl] ester

> <PUBCHEM_IUPAC_NAME_MARKUP>
<I>S</I>-[2-[3-[[4-[[[5-(6-aminopurin-9-yl)-4-hydroxy-3-phosphonooxyoxolan-2-yl]methoxy-hydroxyphosphoryl]oxy-hydroxyphosphoryl]oxy-2-hydroxy-3,3-dimethylbutanoyl]amino]propanoylamino]ethyl] (2<I>R</I>)-2-(4-carbamimidoylanilino)-2-[5-ethoxy-2-fluoro-3-[(3<I>R</I>)-oxolan-3-yl]oxyphenyl]ethanethioate

> <PUBCHEM_IUPAC_NAME>
S-[2-[3-[[4-[[[5-(6-aminopurin-9-yl)-4-hydroxy-3-phosphonooxyoxolan-2-yl]methoxy-hydroxyphosphoryl]oxy-hydroxyphosphoryl]oxy-2-hydroxy-3,3-dimethylbutanoyl]amino]propanoylamino]ethyl] (2R)-2-(4-carbamimidoylanilino)-2-[5-ethoxy-2-fluoro-3-[(3R)-oxolan-3-yl]oxyphenyl]ethanethioate

> <PUBCHEM_IUPAC_SYSTEMATIC_NAME>
S-[2-[3-[[4-[[[5-(6-aminopurin-9-yl)-4-oxidanyl-3-phosphonooxy-oxolan-2-yl]methoxy-oxidanyl-phosphoryl]oxy-oxidanyl-phosphoryl]oxy-3,3-dimethyl-2-oxidanyl-butanoyl]amino]propanoylamino]ethyl] (2R)-2-[(4-carbamimidoylphenyl)amino]-2-[5-ethoxy-2-fluoranyl-3-[(3R)-oxolan-3-yl]oxy-phenyl]ethanethioate

> <PUBCHEM_IUPAC_TRADITIONAL_NAME>
(2R)-2-(4-amidinoanilino)-2-[5-ethoxy-2-fluoro-3-[(3R)-tetrahydrofuran-3-yl]oxy-phenyl]ethanethioic acid S-[2-[3-[[4-[[(5-adenin-9-yl-4-hydroxy-3-phosphonooxy-tetrahydrofuran-2-yl)methoxy-hydroxy-phosphoryl]oxy-hydroxy-phosphoryl]oxy-2-hydroxy-3,3-dimethyl-butanoyl]amino]propanoylamino]ethyl] ester

> <PUBCHEM_IUPAC_INCHI>
InChI=1S/C42H58FN10O20P3S/c1-4-67-25-15-26(30(43)27(16-25)70-24-10-13-66-17-24)31(52-23-7-5-22(6-8-23)36(44)45)41(58)77-14-12-47-29(54)9-11-48-39(57)35(56)42(2,3)19-69-76(64,65)73-75(62,63)68-18-28-34(72-74(59,60)61)33(55)40(71-28)53-21-51-32-37(46)49-20-50-38(32)53/h5-8,15-16,20-21,24,28,31,33-35,40,52,55-56H,4,9-14,17-19H2,1-3H3,(H3,44,45)(H,47,54)(H,48,57)(H,62,63)(H,64,65)(H2,46,49,50)(H2,59,60,61)/t24-,28?,31-,33?,34?,35?,40?/m1/s1

> <PUBCHEM_IUPAC_INCHIKEY>
MJFHLSRRXWVPFV-OIHZQZPHSA-N

> <PUBCHEM_XLOGP3_AA>
-2.8

> <PUBCHEM_EXACT_MASS>
1166.27464461

> <PUBCHEM_MOLECULAR_FORMULA>
C42H58FN10O20P3S

> <PUBCHEM_MOLECULAR_WEIGHT>
1167.0

> <PUBCHEM_OPENEYE_CAN_SMILES>
CCOC1=CC(=C(C(=C1)OC2CCOC2)F)C(C(=O)SCCNC(=O)CCNC(=O)C(C(C)(C)COP(=O)(O)OP(=O)(O)OCC3C(C(C(O3)N4C=NC5=C(N=CN=C54)N)O)OP(=O)(O)O)O)NC6=CC=C(C=C6)C(=N)N

> <PUBCHEM_OPENEYE_ISO_SMILES>
CCOC1=CC(=C(C(=C1)O[C@@H]2CCOC2)F)[C@H](C(=O)SCCNC(=O)CCNC(=O)C(C(C)(C)COP(=O)(O)OP(=O)(O)OCC3C(C(C(O3)N4C=NC5=C(N=CN=C54)N)O)OP(=O)(O)O)O)NC6=CC=C(C=C6)C(=N)N

> <PUBCHEM_CACTVS_TPSA>
479

> <PUBCHEM_MONOISOTOPIC_WEIGHT>
1166.27464461

> <PUBCHEM_TOTAL_CHARGE>
0

> <PUBCHEM_HEAVY_ATOM_COUNT>
77

> <PUBCHEM_ATOM_DEF_STEREO_COUNT>
2

> <PUBCHEM_ATOM_UDEF_STEREO_COUNT>
5

> <PUBCHEM_BOND_DEF_STEREO_COUNT>
0

> <PUBCHEM_BOND_UDEF_STEREO_COUNT>
0

> <PUBCHEM_ISOTOPIC_ATOM_COUNT>
0

> <PUBCHEM_COMPONENT_COUNT>
1

> <PUBCHEM_CACTVS_TAUTO_COUNT>
-1

> <PUBCHEM_COORDINATE_TYPE>
1
5
255

> <PUBCHEM_BONDANNOTATIONS>
48  17  3
52  22  6
39  26  3
26  41  8
26  42  8
27  42  8
27  43  8
28  41  8
28  46  8
29  44  8
29  46  8
61  33  6
38  40  3
41  43  8
43  44  8
58  62  8
58  63  8
60  62  8
60  64  8
63  65  8
64  65  8
69  71  8
69  72  8
36  7  3
71  73  8
72  74  8
73  75  8
74  75  8
37  8  3

$$$$
155489231
  -OEChem-03012215082D

134139  0     1  0  0  0  0  0999 V2000
   12.4641   -0.7504    0.0000 S   0  0  0  0  0  0  0  0  0  0  0  0
   27.6319    1.8330    0.0000 P   0  0  0  0  0  0  0  0  0  0  0  0
   25.4524   -1.3004    0.0000 P   0  0  3  0  0  0  0  0  0  0  0  0
   23.7204   -1.2938    0.0000 P   0  0  3  0  0  0  0  0  0  0  0  0
   28.9644   -1.2207    0.0000 O   0  0  0  0  0  0  0  0  0  0  0  0
   27.4202    0.8557    0.0000 O   0  0  0  0  0  0  0  0  0  0  0  0
   29.5500    1.2998    0.0000 O   0  0  0  0  0  0  0  0  0  0  0  0
    6.3923   -3.2270    0.0000 O   0  0  0  0  0  0  0  0  0  0  0  0
   26.3204   -0.8038    0.0000 O   0  0  0  0  0  0  0  0  0  0  0  0
   27.8436    2.8103    0.0000 O   0  0  0  0  0  0  0  0  0  0  0  0
   26.6546    2.0447    0.0000 O   0  0  0  0  0  0  0  0  0  0  0  0
   24.5845   -1.7971    0.0000 O   0  0  0  0  0  0  0  0  0  0  0  0
   28.6092    1.6213    0.0000 O   0  0  0  0  0  0  0  0  0  0  0  0
   25.9491   -2.1684    0.0000 O   0  0  0  0  0  0  0  0  0  0  0  0
   22.8563   -0.7904    0.0000 O   0  0  0  0  0  0  0  0  0  0  0  0
   24.9558   -0.4325    0.0000 O   0  0  0  0  0  0  0  0  0  0  0  0
   20.2640    0.7196    0.0000 O   0  0  0  0  0  0  0  0  0  0  0  0
   24.2237   -0.4297    0.0000 O   0  0  0  0  0  0  0  0  0  0  0  0
   23.2171   -2.1578    0.0000 O   0  0  0  0  0  0  0  0  0  0  0  0
   19.3884   -1.7770    0.0000 O   0  0  0  0  0  0  0  0  0  0  0  0
   11.6038    0.7530    0.0000 O   0  0  0  0  0  0  0  0  0  0  0  0
   15.9243   -1.7637    0.0000 O   0  0  0  0  0  0  0  0  0  0  0  0
   30.6305   -0.5885    0.0000 N   0  0  0  0  0  0  0  0  0  0  0  0
   32.0971   -1.2513    0.0000 N   0  0  0  0  0  0  0  0  0  0  0  0
   31.1989    1.1434    0.0000 N   0  0  0  0  0  0  0  0  0  0  0  0
   32.9224    1.3148    0.0000 N   0  0  0  0  0  0  0  0  0  0  0  0
   33.9327   -0.0922    0.0000 N   0  0  0  0  0  0  0  0  0  0  0  0
   18.5281   -0.2737    0.0000 N   0  0  0  0  0  0  0  0  0  0  0  0
   15.0640   -0.2604    0.0000 N   0  0  0  0  0  0  0  0  0  0  0  0
    2.8660   -2.2028    0.0000 C   0  0  0  0  0  0  0  0  0  0  0  0
    2.8660   -0.2028    0.0000 C   0  0  0  0  0  0  0  0  0  0  0  0
    2.0000   -1.7028    0.0000 C   0  0  0  0  0  0  0  0  0  0  0  0
    2.0000   -0.7028    0.0000 C   0  0  0  0  0  0  0  0  0  0  0  0
    3.7320   -1.7028    0.0000 C   0  0  0  0  0  0  0  0  0  0  0  0
    3.7320   -0.7028    0.0000 C   0  0  0  0  0  0  0  0  0  0  0  0
    2.3660   -3.0688    0.0000 C   0  0  0  0  0  0  0  0  0  0  0  0
    3.3660   -3.0688    0.0000 C   0  0  0  0  0  0  0  0  0  0  0  0
    2.3660    0.6632    0.0000 C   0  0  0  0  0  0  0  0  0  0  0  0
    3.3660    0.6632    0.0000 C   0  0  0  0  0  0  0  0  0  0  0  0
    4.6260   -2.2375    0.0000 C   0  0  0  0  0  0  0  0  0  0  0  0
    4.6260   -0.1682    0.0000 C   0  0  0  0  0  0  0  0  0  0  0  0
    5.5321   -1.7236    0.0000 C   0  0  0  0  0  0  0  0  0  0  0  0
    5.5321   -0.6820    0.0000 C   0  0  0  0  0  0  0  0  0  0  0  0
   28.1608    0.1837    0.0000 C   0  0  3  0  0  0  0  0  0  0  0  0
   29.1397    0.3878    0.0000 C   0  0  3  0  0  0  0  0  0  0  0  0
    6.3961   -2.2270    0.0000 C   0  0  0  0  0  0  0  0  0  0  0  0
   28.0524   -0.8104    0.0000 C   0  0  3  0  0  0  0  0  0  0  0  0
   29.6364   -0.4801    0.0000 C   0  0  3  0  0  0  0  0  0  0  0  0
   27.1845   -1.3071    0.0000 C   0  0  0  0  0  0  0  0  0  0  0  0
    7.2641   -1.7303    0.0000 C   0  0  0  0  0  0  0  0  0  0  0  0
   31.2979    0.1483    0.0000 C   0  0  0  0  0  0  0  0  0  0  0  0
   31.1235   -1.4517    0.0000 C   0  0  0  0  0  0  0  0  0  0  0  0
   32.2091   -0.2636    0.0000 C   0  0  0  0  0  0  0  0  0  0  0  0
    8.1282   -2.2336    0.0000 C   0  0  0  0  0  0  0  0  0  0  0  0
   33.0214    0.3197    0.0000 C   0  0  0  0  0  0  0  0  0  0  0  0
   21.1243   -0.7837    0.0000 C   0  0  0  0  0  0  0  0  0  0  0  0
    8.9961   -1.7370    0.0000 C   0  0  0  0  0  0  0  0  0  0  0  0
   32.0112    1.7266    0.0000 C   0  0  0  0  0  0  0  0  0  0  0  0
   21.9883   -1.2871    0.0000 C   0  0  0  0  0  0  0  0  0  0  0  0
   20.2602   -0.2804    0.0000 C   0  0  3  0  0  0  0  0  0  0  0  0
   21.6276    0.0804    0.0000 C   0  0  0  0  0  0  0  0  0  0  0  0
   20.6209   -1.6478    0.0000 C   0  0  0  0  0  0  0  0  0  0  0  0
    9.0000   -0.7370    0.0000 C   0  0  0  0  0  0  0  0  0  0  0  0
    9.8602   -2.2403    0.0000 C   0  0  0  0  0  0  0  0  0  0  0  0
   19.3922   -0.7771    0.0000 C   0  0  0  0  0  0  0  0  0  0  0  0
    9.8679   -0.2403    0.0000 C   0  0  0  0  0  0  0  0  0  0  0  0
   10.7282   -1.7437    0.0000 C   0  0  0  0  0  0  0  0  0  0  0  0
   10.7320   -0.7437    0.0000 C   0  0  0  0  0  0  0  0  0  0  0  0
   17.6602   -0.7704    0.0000 C   0  0  0  0  0  0  0  0  0  0  0  0
   16.7961   -0.2671    0.0000 C   0  0  0  0  0  0  0  0  0  0  0  0
   11.6000   -0.2470    0.0000 C   0  0  0  0  0  0  0  0  0  0  0  0
   15.9281   -0.7637    0.0000 C   0  0  0  0  0  0  0  0  0  0  0  0
   13.3320   -0.2537    0.0000 C   0  0  0  0  0  0  0  0  0  0  0  0
   14.1961   -0.7570    0.0000 C   0  0  0  0  0  0  0  0  0  0  0  0
    1.3894   -1.5952    0.0000 H   0  0  0  0  0  0  0  0  0  0  0  0
    1.7880   -2.2854    0.0000 H   0  0  0  0  0  0  0  0  0  0  0  0
    1.7880   -0.1202    0.0000 H   0  0  0  0  0  0  0  0  0  0  0  0
    1.3894   -0.8105    0.0000 H   0  0  0  0  0  0  0  0  0  0  0  0
    1.8291   -2.7588    0.0000 H   0  0  0  0  0  0  0  0  0  0  0  0
    2.0560   -3.6058    0.0000 H   0  0  0  0  0  0  0  0  0  0  0  0
    2.9030   -3.3788    0.0000 H   0  0  0  0  0  0  0  0  0  0  0  0
    2.8291   -3.3788    0.0000 H   0  0  0  0  0  0  0  0  0  0  0  0
    3.6760   -3.6058    0.0000 H   0  0  0  0  0  0  0  0  0  0  0  0
    3.9030   -2.7588    0.0000 H   0  0  0  0  0  0  0  0  0  0  0  0
    2.9030    0.9732    0.0000 H   0  0  0  0  0  0  0  0  0  0  0  0
    2.0560    1.2001    0.0000 H   0  0  0  0  0  0  0  0  0  0  0  0
    1.8291    0.3532    0.0000 H   0  0  0  0  0  0  0  0  0  0  0  0
    3.9030    0.3532    0.0000 H   0  0  0  0  0  0  0  0  0  0  0  0
    3.6760    1.2001    0.0000 H   0  0  0  0  0  0  0  0  0  0  0  0
    2.8291    0.9732    0.0000 H   0  0  0  0  0  0  0  0  0  0  0  0
    4.6188   -2.8574    0.0000 H   0  0  0  0  0  0  0  0  0  0  0  0
    4.6188    0.4518    0.0000 H   0  0  0  0  0  0  0  0  0  0  0  0
    6.0678   -0.3699    0.0000 H   0  0  0  0  0  0  0  0  0  0  0  0
   27.5811   -0.0363    0.0000 H   0  0  0  0  0  0  0  0  0  0  0  0
   28.7514    0.8711    0.0000 H   0  0  0  0  0  0  0  0  0  0  0  0
   28.0825   -1.4297    0.0000 H   0  0  0  0  0  0  0  0  0  0  0  0
   29.9760    0.0385    0.0000 H   0  0  0  0  0  0  0  0  0  0  0  0
   26.7841   -1.7805    0.0000 H   0  0  0  0  0  0  0  0  0  0  0  0
   27.5812   -1.7836    0.0000 H   0  0  0  0  0  0  0  0  0  0  0  0
    7.2665   -1.1103    0.0000 H   0  0  0  0  0  0  0  0  0  0  0  0
   29.1875    1.8028    0.0000 H   0  0  0  0  0  0  0  0  0  0  0  0
   30.8681   -2.0167    0.0000 H   0  0  0  0  0  0  0  0  0  0  0  0
    8.1258   -2.8536    0.0000 H   0  0  0  0  0  0  0  0  0  0  0  0
   27.3844    3.2270    0.0000 H   0  0  0  0  0  0  0  0  0  0  0  0
   26.4652    2.6351    0.0000 H   0  0  0  0  0  0  0  0  0  0  0  0
   21.5880   -1.7605    0.0000 H   0  0  0  0  0  0  0  0  0  0  0  0
   22.3850   -1.7636    0.0000 H   0  0  0  0  0  0  0  0  0  0  0  0
   19.7244    0.0317    0.0000 H   0  0  0  0  0  0  0  0  0  0  0  0
   31.9498    2.3436    0.0000 H   0  0  0  0  0  0  0  0  0  0  0  0
   22.1633   -0.2317    0.0000 H   0  0  0  0  0  0  0  0  0  0  0  0
   21.9397    0.6161    0.0000 H   0  0  0  0  0  0  0  0  0  0  0  0
   21.0919    0.3924    0.0000 H   0  0  0  0  0  0  0  0  0  0  0  0
   20.0852   -1.3358    0.0000 H   0  0  0  0  0  0  0  0  0  0  0  0
   20.3089   -2.1836    0.0000 H   0  0  0  0  0  0  0  0  0  0  0  0
   21.1567   -1.9599    0.0000 H   0  0  0  0  0  0  0  0  0  0  0  0
   25.6370   -2.7041    0.0000 H   0  0  0  0  0  0  0  0  0  0  0  0
   34.4363    0.2695    0.0000 H   0  0  0  0  0  0  0  0  0  0  0  0
   33.9940   -0.7091    0.0000 H   0  0  0  0  0  0  0  0  0  0  0  0
    8.4642   -0.4249    0.0000 H   0  0  0  0  0  0  0  0  0  0  0  0
    9.8578   -2.8603    0.0000 H   0  0  0  0  0  0  0  0  0  0  0  0
   20.8021    1.0275    0.0000 H   0  0  0  0  0  0  0  0  0  0  0  0
    9.8703    0.3796    0.0000 H   0  0  0  0  0  0  0  0  0  0  0  0
   11.2639   -2.0557    0.0000 H   0  0  0  0  0  0  0  0  0  0  0  0
   18.5305    0.3463    0.0000 H   0  0  0  0  0  0  0  0  0  0  0  0
   23.9158    0.1085    0.0000 H   0  0  0  0  0  0  0  0  0  0  0  0
   17.2598   -1.2438    0.0000 H   0  0  0  0  0  0  0  0  0  0  0  0
   18.0569   -1.2469    0.0000 H   0  0  0  0  0  0  0  0  0  0  0  0
   17.1964    0.2064    0.0000 H   0  0  0  0  0  0  0  0  0  0  0  0
   16.3994    0.2094    0.0000 H   0  0  0  0  0  0  0  0  0  0  0  0
   15.0664    0.3596    0.0000 H   0  0  0  0  0  0  0  0  0  0  0  0
   13.7324    0.2197    0.0000 H   0  0  0  0  0  0  0  0  0  0  0  0
   12.9353    0.2228    0.0000 H   0  0  0  0  0  0  0  0  0  0  0  0
   13.7957   -1.2304    0.0000 H   0  0  0  0  0  0  0  0  0  0  0  0
   14.5928   -1.2335    0.0000 H   0  0  0  0  0  0  0  0  0  0  0  0
  1 71  1  0  0  0  0
  1 73  1  0  0  0  0
  2  6  1  0  0  0  0
  2 10  1  0  0  0  0
  2 11  1  0  0  0  0
  2 13  2  0  0  0  0
  3  9  1  0  0  0  0
  3 12  1  0  0  0  0
  3 14  1  0  0  0  0
  3 16  2  0  0  0  0
  4 12  1  0  0  0  0
  4 15  1  0  0  0  0
  4 18  1  0  0  0  0
  4 19  2  0  0  0  0
  5 47  1  0  0  0  0
  5 48  1  0  0  0  0
  6 44  1  0  0  0  0
  7 45  1  0  0  0  0
  7101  1  0  0  0  0
  8 46  2  0  0  0  0
  9 49  1  0  0  0  0
 10104  1  0  0  0  0
 11105  1  0  0  0  0
 14116  1  0  0  0  0
 15 59  1  0  0  0  0
 17 60  1  0  0  0  0
 17121  1  0  0  0  0
 18125  1  0  0  0  0
 20 65  2  0  0  0  0
 21 71  2  0  0  0  0
 22 72  2  0  0  0  0
 23 48  1  0  0  0  0
 23 51  1  0  0  0  0
 23 52  1  0  0  0  0
 24 52  2  0  0  0  0
 24 53  1  0  0  0  0
 25 51  2  0  0  0  0
 25 58  1  0  0  0  0
 26 55  1  0  0  0  0
 26 58  2  0  0  0  0
 27 55  1  0  0  0  0
 27117  1  0  0  0  0
 27118  1  0  0  0  0
 28 65  1  0  0  0  0
 28 69  1  0  0  0  0
 28124  1  0  0  0  0
 29 72  1  0  0  0  0
 29 74  1  0  0  0  0
 29130  1  0  0  0  0
 30 32  1  0  0  0  0
 30 34  1  0  0  0  0
 30 36  1  0  0  0  0
 30 37  1  0  0  0  0
 31 33  1  0  0  0  0
 31 35  1  0  0  0  0
 31 38  1  0  0  0  0
 31 39  1  0  0  0  0
 32 33  1  0  0  0  0
 32 75  1  0  0  0  0
 32 76  1  0  0  0  0
 33 77  1  0  0  0  0
 33 78  1  0  0  0  0
 34 35  2  0  0  0  0
 34 40  1  0  0  0  0
 35 41  1  0  0  0  0
 36 79  1  0  0  0  0
 36 80  1  0  0  0  0
 36 81  1  0  0  0  0
 37 82  1  0  0  0  0
 37 83  1  0  0  0  0
 37 84  1  0  0  0  0
 38 85  1  0  0  0  0
 38 86  1  0  0  0  0
 38 87  1  0  0  0  0
 39 88  1  0  0  0  0
 39 89  1  0  0  0  0
 39 90  1  0  0  0  0
 40 42  2  0  0  0  0
 40 91  1  0  0  0  0
 41 43  2  0  0  0  0
 41 92  1  0  0  0  0
 42 43  1  0  0  0  0
 42 46  1  0  0  0  0
 43 93  1  0  0  0  0
 44 45  1  0  0  0  0
 44 47  1  0  0  0  0
 44 94  1  0  0  0  0
 45 48  1  0  0  0  0
 45 95  1  0  0  0  0
 46 50  1  0  0  0  0
 47 49  1  0  0  0  0
 47 96  1  0  0  0  0
 48 97  1  0  0  0  0
 49 98  1  0  0  0  0
 49 99  1  0  0  0  0
 50 54  2  0  0  0  0
 50100  1  0  0  0  0
 51 53  1  0  0  0  0
 52102  1  0  0  0  0
 53 55  2  0  0  0  0
 54 57  1  0  0  0  0
 54103  1  0  0  0  0
 56 59  1  0  0  0  0
 56 60  1  0  0  0  0
 56 61  1  0  0  0  0
 56 62  1  0  0  0  0
 57 63  2  0  0  0  0
 57 64  1  0  0  0  0
 58109  1  0  0  0  0
 59106  1  0  0  0  0
 59107  1  0  0  0  0
 60 65  1  0  0  0  0
 60108  1  0  0  0  0
 61110  1  0  0  0  0
 61111  1  0  0  0  0
 61112  1  0  0  0  0
 62113  1  0  0  0  0
 62114  1  0  0  0  0
 62115  1  0  0  0  0
 63 66  1  0  0  0  0
 63119  1  0  0  0  0
 64 67  2  0  0  0  0
 64120  1  0  0  0  0
 66 68  2  0  0  0  0
 66122  1  0  0  0  0
 67 68  1  0  0  0  0
 67123  1  0  0  0  0
 68 71  1  0  0  0  0
 69 70  1  0  0  0  0
 69126  1  0  0  0  0
 69127  1  0  0  0  0
 70 72  1  0  0  0  0
 70128  1  0  0  0  0
 70129  1  0  0  0  0
 73 74  1  0  0  0  0
 73131  1  0  0  0  0
 73132  1  0  0  0  0
 74133  1  0  0  0  0
 74134  1  0  0  0  0
M  END
> <PUBCHEM_COMPOUND_CID>
155489231

> <PUBCHEM_COMPOUND_CANONICALIZED>
1

> <PUBCHEM_CACTVS_COMPLEXITY>
2170

> <PUBCHEM_CACTVS_HBOND_ACCEPTOR>
23

> <PUBCHEM_CACTVS_HBOND_DONOR>
9

> <PUBCHEM_CACTVS_ROTATABLE_BOND>
24

> <PUBCHEM_CACTVS_SUBSKEYS>
AAADcfB/vgNAAAAAAAAAAAAAAAAAAWJAAAA8YMEAAAAAAFjB/AAAHgQQCCAADhzl3wa38L/MFxioQ6dzdIKCgC01ELAJ2KFoVNiLeDrg3VCeZQgvlgL7iaf6uMKPwAACAAAQAACAAAQAACAAAAAAAAAAAA==

> <PUBCHEM_IUPAC_OPENEYE_NAME>
S-[2-[3-[[4-[[[5-(6-aminopurin-9-yl)-4-hydroxy-3-phosphonooxy-tetrahydrofuran-2-yl]methoxy-hydroxy-phosphoryl]oxy-hydroxy-phosphoryl]oxy-2-hydroxy-3,3-dimethyl-butanoyl]amino]propanoylamino]ethyl] 4-[(E)-3-oxo-3-(1,1,4,4-tetramethyltetralin-6-yl)prop-1-enyl]benzenecarbothioate

> <PUBCHEM_IUPAC_CAS_NAME>
4-[(E)-3-oxo-3-(5,5,8,8-tetramethyl-6,7-dihydronaphthalen-2-yl)prop-1-enyl]benzenecarbothioic acid S-[2-[[3-[[4-[[[5-(6-aminopurin-9-yl)-4-hydroxy-3-phosphonooxy-2-oxolanyl]methoxy-hydroxyphosphoryl]oxy-hydroxyphosphoryl]oxy-2-hydroxy-3,3-dimethyl-1-oxobutyl]amino]-1-oxopropyl]amino]ethyl] ester

> <PUBCHEM_IUPAC_NAME_MARKUP>
<I>S</I>-[2-[3-[[4-[[[5-(6-aminopurin-9-yl)-4-hydroxy-3-phosphonooxyoxolan-2-yl]methoxy-hydroxyphosphoryl]oxy-hydroxyphosphoryl]oxy-2-hydroxy-3,3-dimethylbutanoyl]amino]propanoylamino]ethyl] 4-[(<I>E</I>)-3-oxo-3-(5,5,8,8-tetramethyl-6,7-dihydronaphthalen-2-yl)prop-1-enyl]benzenecarbothioate

> <PUBCHEM_IUPAC_NAME>
S-[2-[3-[[4-[[[5-(6-aminopurin-9-yl)-4-hydroxy-3-phosphonooxyoxolan-2-yl]methoxy-hydroxyphosphoryl]oxy-hydroxyphosphoryl]oxy-2-hydroxy-3,3-dimethylbutanoyl]amino]propanoylamino]ethyl] 4-[(E)-3-oxo-3-(5,5,8,8-tetramethyl-6,7-dihydronaphthalen-2-yl)prop-1-enyl]benzenecarbothioate

> <PUBCHEM_IUPAC_SYSTEMATIC_NAME>
S-[2-[3-[[4-[[[5-(6-aminopurin-9-yl)-4-oxidanyl-3-phosphonooxy-oxolan-2-yl]methoxy-oxidanyl-phosphoryl]oxy-oxidanyl-phosphoryl]oxy-3,3-dimethyl-2-oxidanyl-butanoyl]amino]propanoylamino]ethyl] 4-[(E)-3-oxidanylidene-3-(5,5,8,8-tetramethyl-6,7-dihydronaphthalen-2-yl)prop-1-enyl]benzenecarbothioate

> <PUBCHEM_IUPAC_TRADITIONAL_NAME>
4-[(E)-3-keto-3-(1,1,4,4-tetramethyltetralin-6-yl)prop-1-enyl]thiobenzoic acid S-[2-[3-[[4-[[(5-adenin-9-yl-4-hydroxy-3-phosphonooxy-tetrahydrofuran-2-yl)methoxy-hydroxy-phosphoryl]oxy-hydroxy-phosphoryl]oxy-2-hydroxy-3,3-dimethyl-butanoyl]amino]propanoylamino]ethyl] ester

> <PUBCHEM_IUPAC_INCHI>
InChI=1S/C45H60N7O18P3S/c1-43(2)16-17-44(3,4)30-21-28(12-13-29(30)43)31(53)14-9-26-7-10-27(11-8-26)42(58)74-20-19-47-33(54)15-18-48-40(57)37(56)45(5,6)23-67-73(64,65)70-72(62,63)66-22-32-36(69-71(59,60)61)35(55)41(68-32)52-25-51-34-38(46)49-24-50-39(34)52/h7-14,21,24-25,32,35-37,41,55-56H,15-20,22-23H2,1-6H3,(H,47,54)(H,48,57)(H,62,63)(H,64,65)(H2,46,49,50)(H2,59,60,61)/b14-9+

> <PUBCHEM_IUPAC_INCHIKEY>
MLGKWHRHEHMPGU-NTEUORMPSA-N

> <PUBCHEM_XLOGP3_AA>
0.9

> <PUBCHEM_EXACT_MASS>
1111.29284026

> <PUBCHEM_MOLECULAR_FORMULA>
C45H60N7O18P3S

> <PUBCHEM_MOLECULAR_WEIGHT>
1112.0

> <PUBCHEM_OPENEYE_CAN_SMILES>
CC1(CCC(C2=C1C=CC(=C2)C(=O)C=CC3=CC=C(C=C3)C(=O)SCCNC(=O)CCNC(=O)C(C(C)(C)COP(=O)(O)OP(=O)(O)OCC4C(C(C(O4)N5C=NC6=C(N=CN=C65)N)O)OP(=O)(O)O)O)(C)C)C

> <PUBCHEM_OPENEYE_ISO_SMILES>
CC1(CCC(C2=C1C=CC(=C2)C(=O)/C=C/C3=CC=C(C=C3)C(=O)SCCNC(=O)CCNC(=O)C(C(C)(C)COP(=O)(O)OP(=O)(O)OCC4C(C(C(O4)N5C=NC6=C(N=CN=C65)N)O)OP(=O)(O)O)O)(C)C)C

> <PUBCHEM_CACTVS_TPSA>
406

> <PUBCHEM_MONOISOTOPIC_WEIGHT>
1111.29284026

> <PUBCHEM_TOTAL_CHARGE>
0

> <PUBCHEM_HEAVY_ATOM_COUNT>
74

> <PUBCHEM_ATOM_DEF_STEREO_COUNT>
0

> <PUBCHEM_ATOM_UDEF_STEREO_COUNT>
5

> <PUBCHEM_BOND_DEF_STEREO_COUNT>
1

> <PUBCHEM_BOND_UDEF_STEREO_COUNT>
0

> <PUBCHEM_ISOTOPIC_ATOM_COUNT>
0

> <PUBCHEM_COMPONENT_COUNT>
1

> <PUBCHEM_CACTVS_TAUTO_COUNT>
-1

> <PUBCHEM_COORDINATE_TYPE>
1
5
255

> <PUBCHEM_BONDANNOTATIONS>
60  17  3
48  23  3
23  51  8
23  52  8
24  52  8
24  53  8
25  51  8
25  58  8
26  55  8
26  58  8
34  35  8
34  40  8
35  41  8
40  42  8
41  43  8
42  43  8
47  49  3
51  53  8
53  55  8
57  63  8
57  64  8
44  6  3
63  66  8
64  67  8
66  68  8
67  68  8
45  7  3

$$$$
155489263
  -OEChem-03012215082D

103106  0     1  0  0  0  0  0999 V2000
   21.4481    2.3148    0.0000 S   0  0  0  0  0  0  0  0  0  0  0  0
    5.3548    2.7165    0.0000 P   0  0  0  0  0  0  0  0  0  0  0  0
    8.4752    1.4767    0.0000 P   0  0  3  0  0  0  0  0  0  0  0  0
   10.1980    1.6548    0.0000 P   0  0  3  0  0  0  0  0  0  0  0  0
    5.9405   -0.2878    0.0000 O   0  0  0  0  0  0  0  0  0  0  0  0
    4.6844    1.9745    0.0000 O   0  0  0  0  0  0  0  0  0  0  0  0
    3.4026    0.2166    0.0000 O   0  0  0  0  0  0  0  0  0  0  0  0
    7.6651    0.8903    0.0000 O   0  0  0  0  0  0  0  0  0  0  0  0
    6.0252    3.4585    0.0000 O   0  0  0  0  0  0  0  0  0  0  0  0
    4.6128    3.3869    0.0000 O   0  0  0  0  0  0  0  0  0  0  0  0
    9.2852    2.0631    0.0000 O   0  0  0  0  0  0  0  0  0  0  0  0
    6.0968    2.0461    0.0000 O   0  0  0  0  0  0  0  0  0  0  0  0
   11.1109    1.2464    0.0000 O   0  0  0  0  0  0  0  0  0  0  0  0
    9.0615    0.6667    0.0000 O   0  0  0  0  0  0  0  0  0  0  0  0
    7.8888    2.2867    0.0000 O   0  0  0  0  0  0  0  0  0  0  0  0
   13.8494    0.0215    0.0000 O   0  0  0  0  0  0  0  0  0  0  0  0
   10.6063    2.5676    0.0000 O   0  0  0  0  0  0  0  0  0  0  0  0
    9.7897    0.7419    0.0000 O   0  0  0  0  0  0  0  0  0  0  0  0
   14.4538    2.5973    0.0000 O   0  0  0  0  0  0  0  0  0  0  0  0
   17.8996    2.9534    0.0000 O   0  0  0  0  0  0  0  0  0  0  0  0
   23.7574    1.6829    0.0000 O   0  0  0  0  0  0  0  0  0  0  0  0
   22.4638    0.9118    0.0000 O   0  0  0  0  0  0  0  0  0  0  0  0
    4.6783   -1.5456    0.0000 N   0  0  0  0  0  0  0  0  0  0  0  0
    4.6783   -3.1551    0.0000 N   0  0  0  0  0  0  0  0  0  0  0  0
    2.8660   -1.3504    0.0000 N   0  0  0  0  0  0  0  0  0  0  0  0
    2.0000   -2.8504    0.0000 N   0  0  0  0  0  0  0  0  0  0  0  0
    2.8660   -4.3504    0.0000 N   0  0  0  0  0  0  0  0  0  0  0  0
   15.4695    1.1943    0.0000 N   0  0  0  0  0  0  0  0  0  0  0  0
   18.9152    1.5504    0.0000 N   0  0  0  0  0  0  0  0  0  0  0  0
    4.9917    1.0229    0.0000 C   0  0  3  0  0  0  0  0  0  0  0  0
    4.4026    0.2149    0.0000 C   0  0  3  0  0  0  0  0  0  0  0  0
    5.9422    0.7122    0.0000 C   0  0  3  0  0  0  0  0  0  0  0  0
    4.9889   -0.5951    0.0000 C   0  0  3  0  0  0  0  0  0  0  0  0
    6.7523    1.2986    0.0000 C   0  0  0  0  0  0  0  0  0  0  0  0
    3.7320   -1.8504    0.0000 C   0  0  0  0  0  0  0  0  0  0  0  0
    5.2619   -2.3504    0.0000 C   0  0  0  0  0  0  0  0  0  0  0  0
    3.7320   -2.8504    0.0000 C   0  0  0  0  0  0  0  0  0  0  0  0
   12.8337    1.4245    0.0000 C   0  0  0  0  0  0  0  0  0  0  0  0
   13.7466    1.0162    0.0000 C   0  0  3  0  0  0  0  0  0  0  0  0
    2.8660   -3.3504    0.0000 C   0  0  0  0  0  0  0  0  0  0  0  0
   11.9209    1.8328    0.0000 C   0  0  0  0  0  0  0  0  0  0  0  0
   13.2421    2.3373    0.0000 C   0  0  0  0  0  0  0  0  0  0  0  0
   12.4254    0.5117    0.0000 C   0  0  0  0  0  0  0  0  0  0  0  0
    2.0000   -1.8504    0.0000 C   0  0  0  0  0  0  0  0  0  0  0  0
   14.5566    1.6026    0.0000 C   0  0  0  0  0  0  0  0  0  0  0  0
   16.2795    1.7806    0.0000 C   0  0  0  0  0  0  0  0  0  0  0  0
   17.1923    1.3723    0.0000 C   0  0  0  0  0  0  0  0  0  0  0  0
   18.0024    1.9587    0.0000 C   0  0  0  0  0  0  0  0  0  0  0  0
   19.7252    2.1368    0.0000 C   0  0  0  0  0  0  0  0  0  0  0  0
   20.6381    1.7285    0.0000 C   0  0  0  0  0  0  0  0  0  0  0  0
   23.1710    2.4929    0.0000 C   0  0  3  0  0  0  0  0  0  0  0  0
   23.9810    3.0793    0.0000 C   0  0  0  0  0  0  0  0  0  0  0  0
   22.3610    1.9065    0.0000 C   0  0  0  0  0  0  0  0  0  0  0  0
   22.5846    3.3030    0.0000 C   0  0  0  0  0  0  0  0  0  0  0  0
   23.8782    4.0740    0.0000 C   0  0  0  0  0  0  0  0  0  0  0  0
   24.8939    2.6710    0.0000 C   0  0  0  0  0  0  0  0  0  0  0  0
   24.6882    4.6604    0.0000 C   0  0  0  0  0  0  0  0  0  0  0  0
   25.7039    3.2574    0.0000 C   0  0  0  0  0  0  0  0  0  0  0  0
   25.6011    4.2521    0.0000 C   0  0  0  0  0  0  0  0  0  0  0  0
    5.4309    1.4606    0.0000 H   0  0  0  0  0  0  0  0  0  0  0  0
    4.1201   -0.3370    0.0000 H   0  0  0  0  0  0  0  0  0  0  0  0
    6.4942    0.4298    0.0000 H   0  0  0  0  0  0  0  0  0  0  0  0
    5.4266   -1.0343    0.0000 H   0  0  0  0  0  0  0  0  0  0  0  0
    7.0999    1.8120    0.0000 H   0  0  0  0  0  0  0  0  0  0  0  0
    6.3070    1.7301    0.0000 H   0  0  0  0  0  0  0  0  0  0  0  0
    3.0935    0.7541    0.0000 H   0  0  0  0  0  0  0  0  0  0  0  0
    5.8819   -2.3504    0.0000 H   0  0  0  0  0  0  0  0  0  0  0  0
   13.2444    0.6526    0.0000 H   0  0  0  0  0  0  0  0  0  0  0  0
   12.2685    2.3462    0.0000 H   0  0  0  0  0  0  0  0  0  0  0  0
   11.4757    2.2643    0.0000 H   0  0  0  0  0  0  0  0  0  0  0  0
   13.8080    2.0842    0.0000 H   0  0  0  0  0  0  0  0  0  0  0  0
   13.4952    2.9033    0.0000 H   0  0  0  0  0  0  0  0  0  0  0  0
   12.6761    2.5905    0.0000 H   0  0  0  0  0  0  0  0  0  0  0  0
   11.8595    0.7648    0.0000 H   0  0  0  0  0  0  0  0  0  0  0  0
   12.1723   -0.0543    0.0000 H   0  0  0  0  0  0  0  0  0  0  0  0
   12.9914    0.2585    0.0000 H   0  0  0  0  0  0  0  0  0  0  0  0
    5.8346    4.0484    0.0000 H   0  0  0  0  0  0  0  0  0  0  0  0
    4.0228    3.1963    0.0000 H   0  0  0  0  0  0  0  0  0  0  0  0
    1.4631   -1.5404    0.0000 H   0  0  0  0  0  0  0  0  0  0  0  0
    8.8084    0.1007    0.0000 H   0  0  0  0  0  0  0  0  0  0  0  0
    2.3291   -4.6604    0.0000 H   0  0  0  0  0  0  0  0  0  0  0  0
    3.4030   -4.6604    0.0000 H   0  0  0  0  0  0  0  0  0  0  0  0
   14.4154   -0.2317    0.0000 H   0  0  0  0  0  0  0  0  0  0  0  0
   15.5332    0.5775    0.0000 H   0  0  0  0  0  0  0  0  0  0  0  0
   16.6271    2.2940    0.0000 H   0  0  0  0  0  0  0  0  0  0  0  0
   15.8342    2.2121    0.0000 H   0  0  0  0  0  0  0  0  0  0  0  0
   10.2428    3.0698    0.0000 H   0  0  0  0  0  0  0  0  0  0  0  0
   16.8447    0.8589    0.0000 H   0  0  0  0  0  0  0  0  0  0  0  0
   17.6376    0.9409    0.0000 H   0  0  0  0  0  0  0  0  0  0  0  0
   18.9789    0.9337    0.0000 H   0  0  0  0  0  0  0  0  0  0  0  0
   20.0728    2.6502    0.0000 H   0  0  0  0  0  0  0  0  0  0  0  0
   19.2800    2.5682    0.0000 H   0  0  0  0  0  0  0  0  0  0  0  0
   20.2905    1.2151    0.0000 H   0  0  0  0  0  0  0  0  0  0  0  0
   21.0833    1.2970    0.0000 H   0  0  0  0  0  0  0  0  0  0  0  0
   23.0868    3.6665    0.0000 H   0  0  0  0  0  0  0  0  0  0  0  0
   22.2210    3.8052    0.0000 H   0  0  0  0  0  0  0  0  0  0  0  0
   22.0824    2.9394    0.0000 H   0  0  0  0  0  0  0  0  0  0  0  0
   23.3122    4.3272    0.0000 H   0  0  0  0  0  0  0  0  0  0  0  0
   24.9576    2.0543    0.0000 H   0  0  0  0  0  0  0  0  0  0  0  0
   23.5042    1.1169    0.0000 H   0  0  0  0  0  0  0  0  0  0  0  0
   24.6245    5.2771    0.0000 H   0  0  0  0  0  0  0  0  0  0  0  0
   26.2699    3.0042    0.0000 H   0  0  0  0  0  0  0  0  0  0  0  0
   26.1033    4.6156    0.0000 H   0  0  0  0  0  0  0  0  0  0  0  0
  1 50  1  0  0  0  0
  1 53  1  0  0  0  0
  2  6  1  0  0  0  0
  2  9  1  0  0  0  0
  2 10  1  0  0  0  0
  2 12  2  0  0  0  0
  3  8  1  0  0  0  0
  3 11  1  0  0  0  0
  3 14  1  0  0  0  0
  3 15  2  0  0  0  0
  4 11  1  0  0  0  0
  4 13  1  0  0  0  0
  4 17  1  0  0  0  0
  4 18  2  0  0  0  0
  5 32  1  0  0  0  0
  5 33  1  0  0  0  0
  6 30  1  0  0  0  0
  7 31  1  0  0  0  0
  7 66  1  0  0  0  0
  8 34  1  0  0  0  0
  9 77  1  0  0  0  0
 10 78  1  0  0  0  0
 13 41  1  0  0  0  0
 14 80  1  0  0  0  0
 16 39  1  0  0  0  0
 16 83  1  0  0  0  0
 17 87  1  0  0  0  0
 19 45  2  0  0  0  0
 20 48  2  0  0  0  0
 21 51  1  0  0  0  0
 21100  1  0  0  0  0
 22 53  2  0  0  0  0
 23 33  1  0  0  0  0
 23 35  1  0  0  0  0
 23 36  1  0  0  0  0
 24 36  2  0  0  0  0
 24 37  1  0  0  0  0
 25 35  2  0  0  0  0
 25 44  1  0  0  0  0
 26 40  1  0  0  0  0
 26 44  2  0  0  0  0
 27 40  1  0  0  0  0
 27 81  1  0  0  0  0
 27 82  1  0  0  0  0
 28 45  1  0  0  0  0
 28 46  1  0  0  0  0
 28 84  1  0  0  0  0
 29 48  1  0  0  0  0
 29 49  1  0  0  0  0
 29 90  1  0  0  0  0
 30 31  1  0  0  0  0
 30 32  1  0  0  0  0
 30 60  1  0  0  0  0
 31 33  1  0  0  0  0
 31 61  1  0  0  0  0
 32 34  1  0  0  0  0
 32 62  1  0  0  0  0
 33 63  1  0  0  0  0
 34 64  1  0  0  0  0
 34 65  1  0  0  0  0
 35 37  1  0  0  0  0
 36 67  1  0  0  0  0
 37 40  2  0  0  0  0
 38 39  1  0  0  0  0
 38 41  1  0  0  0  0
 38 42  1  0  0  0  0
 38 43  1  0  0  0  0
 39 45  1  0  0  0  0
 39 68  1  0  0  0  0
 41 69  1  0  0  0  0
 41 70  1  0  0  0  0
 42 71  1  0  0  0  0
 42 72  1  0  0  0  0
 42 73  1  0  0  0  0
 43 74  1  0  0  0  0
 43 75  1  0  0  0  0
 43 76  1  0  0  0  0
 44 79  1  0  0  0  0
 46 47  1  0  0  0  0
 46 85  1  0  0  0  0
 46 86  1  0  0  0  0
 47 48  1  0  0  0  0
 47 88  1  0  0  0  0
 47 89  1  0  0  0  0
 49 50  1  0  0  0  0
 49 91  1  0  0  0  0
 49 92  1  0  0  0  0
 50 93  1  0  0  0  0
 50 94  1  0  0  0  0
 51 52  1  0  0  0  0
 51 53  1  0  0  0  0
 51 54  1  0  0  0  0
 52 55  2  0  0  0  0
 52 56  1  0  0  0  0
 54 95  1  0  0  0  0
 54 96  1  0  0  0  0
 54 97  1  0  0  0  0
 55 57  1  0  0  0  0
 55 98  1  0  0  0  0
 56 58  2  0  0  0  0
 56 99  1  0  0  0  0
 57 59  2  0  0  0  0
 57101  1  0  0  0  0
 58 59  1  0  0  0  0
 58102  1  0  0  0  0
 59103  1  0  0  0  0
M  END
> <PUBCHEM_COMPOUND_CID>
155489263

> <PUBCHEM_COMPOUND_CANONICALIZED>
1

> <PUBCHEM_CACTVS_COMPLEXITY>
1610

> <PUBCHEM_CACTVS_HBOND_ACCEPTOR>
23

> <PUBCHEM_CACTVS_HBOND_DONOR>
10

> <PUBCHEM_CACTVS_ROTATABLE_BOND>
22

> <PUBCHEM_CACTVS_SUBSKEYS>
AAADcfB7vgNAAAAAAAAAAAAAAAAAAWJAAAA8QAAAAAAAAFgB/AAAHgQQCCAADlzl3wa38L/MFxioQydzdIKCgC0xELAJ2KFoXJiLfjrg3VCedAgv1gP7mCf6+OKPgAAAAAAAAAAAAAAAAAAAAAAAAAAAAA==

> <PUBCHEM_IUPAC_OPENEYE_NAME>
S-[2-[3-[[4-[[[5-(6-aminopurin-9-yl)-4-hydroxy-3-phosphonooxy-tetrahydrofuran-2-yl]methoxy-hydroxy-phosphoryl]oxy-hydroxy-phosphoryl]oxy-2-hydroxy-3,3-dimethyl-butanoyl]amino]propanoylamino]ethyl] 2-hydroxy-2-phenyl-propanethioate

> <PUBCHEM_IUPAC_CAS_NAME>
2-hydroxy-2-phenylpropanethioic acid S-[2-[[3-[[4-[[[5-(6-aminopurin-9-yl)-4-hydroxy-3-phosphonooxy-2-oxolanyl]methoxy-hydroxyphosphoryl]oxy-hydroxyphosphoryl]oxy-2-hydroxy-3,3-dimethyl-1-oxobutyl]amino]-1-oxopropyl]amino]ethyl] ester

> <PUBCHEM_IUPAC_NAME_MARKUP>
<I>S</I>-[2-[3-[[4-[[[5-(6-aminopurin-9-yl)-4-hydroxy-3-phosphonooxyoxolan-2-yl]methoxy-hydroxyphosphoryl]oxy-hydroxyphosphoryl]oxy-2-hydroxy-3,3-dimethylbutanoyl]amino]propanoylamino]ethyl] 2-hydroxy-2-phenylpropanethioate

> <PUBCHEM_IUPAC_NAME>
S-[2-[3-[[4-[[[5-(6-aminopurin-9-yl)-4-hydroxy-3-phosphonooxyoxolan-2-yl]methoxy-hydroxyphosphoryl]oxy-hydroxyphosphoryl]oxy-2-hydroxy-3,3-dimethylbutanoyl]amino]propanoylamino]ethyl] 2-hydroxy-2-phenylpropanethioate

> <PUBCHEM_IUPAC_SYSTEMATIC_NAME>
S-[2-[3-[[4-[[[5-(6-aminopurin-9-yl)-4-oxidanyl-3-phosphonooxy-oxolan-2-yl]methoxy-oxidanyl-phosphoryl]oxy-oxidanyl-phosphoryl]oxy-3,3-dimethyl-2-oxidanyl-butanoyl]amino]propanoylamino]ethyl] 2-oxidanyl-2-phenyl-propanethioate

> <PUBCHEM_IUPAC_TRADITIONAL_NAME>
2-hydroxy-2-phenyl-propanethioic acid S-[2-[3-[[4-[[(5-adenin-9-yl-4-hydroxy-3-phosphonooxy-tetrahydrofuran-2-yl)methoxy-hydroxy-phosphoryl]oxy-hydroxy-phosphoryl]oxy-2-hydroxy-3,3-dimethyl-butanoyl]amino]propanoylamino]ethyl] ester

> <PUBCHEM_IUPAC_INCHI>
InChI=1S/C30H44N7O18P3S/c1-29(2,23(40)26(41)33-10-9-19(38)32-11-12-59-28(42)30(3,43)17-7-5-4-6-8-17)14-52-58(49,50)55-57(47,48)51-13-18-22(54-56(44,45)46)21(39)27(53-18)37-16-36-20-24(31)34-15-35-25(20)37/h4-8,15-16,18,21-23,27,39-40,43H,9-14H2,1-3H3,(H,32,38)(H,33,41)(H,47,48)(H,49,50)(H2,31,34,35)(H2,44,45,46)

> <PUBCHEM_IUPAC_INCHIKEY>
NBFISDDSZUZOPT-UHFFFAOYSA-N

> <PUBCHEM_XLOGP3_AA>
-4.4

> <PUBCHEM_EXACT_MASS>
915.16763975

> <PUBCHEM_MOLECULAR_FORMULA>
C30H44N7O18P3S

> <PUBCHEM_MOLECULAR_WEIGHT>
915.7

> <PUBCHEM_OPENEYE_CAN_SMILES>
CC(C)(COP(=O)(O)OP(=O)(O)OCC1C(C(C(O1)N2C=NC3=C(N=CN=C32)N)O)OP(=O)(O)O)C(C(=O)NCCC(=O)NCCSC(=O)C(C)(C4=CC=CC=C4)O)O

> <PUBCHEM_OPENEYE_ISO_SMILES>
CC(C)(COP(=O)(O)OP(=O)(O)OCC1C(C(C(O1)N2C=NC3=C(N=CN=C32)N)O)OP(=O)(O)O)C(C(=O)NCCC(=O)NCCSC(=O)C(C)(C4=CC=CC=C4)O)O

> <PUBCHEM_CACTVS_TPSA>
409

> <PUBCHEM_MONOISOTOPIC_WEIGHT>
915.16763975

> <PUBCHEM_TOTAL_CHARGE>
0

> <PUBCHEM_HEAVY_ATOM_COUNT>
59

> <PUBCHEM_ATOM_DEF_STEREO_COUNT>
0

> <PUBCHEM_ATOM_UDEF_STEREO_COUNT>
6

> <PUBCHEM_BOND_DEF_STEREO_COUNT>
0

> <PUBCHEM_BOND_UDEF_STEREO_COUNT>
0

> <PUBCHEM_ISOTOPIC_ATOM_COUNT>
0

> <PUBCHEM_COMPONENT_COUNT>
1

> <PUBCHEM_CACTVS_TAUTO_COUNT>
-1

> <PUBCHEM_COORDINATE_TYPE>
1
5
255

> <PUBCHEM_BONDANNOTATIONS>
39  16  3
51  21  3
33  23  3
23  35  8
23  36  8
24  36  8
24  37  8
25  35  8
25  44  8
26  40  8
26  44  8
32  34  3
35  37  8
37  40  8
52  55  8
52  56  8
55  57  8
56  58  8
57  59  8
58  59  8
30  6  3
31  7  3

$$$$
155489295
  -OEChem-03012215082D

132136  0     1  0  0  0  0  0999 V2000
    7.8667    4.6827    0.0000 S   0  0  0  0  0  0  0  0  0  0  0  0
   21.0909   -4.4976    0.0000 P   0  0  0  0  0  0  0  0  0  0  0  0
   17.8406   -3.6552    0.0000 P   0  0  3  0  0  0  0  0  0  0  0  0
   16.5554   -2.4941    0.0000 P   0  0  3  0  0  0  0  0  0  0  0  0
   18.8439   -6.5760    0.0000 O   0  0  0  0  0  0  0  0  0  0  0  0
   21.1937   -5.4923    0.0000 O   0  0  0  0  0  0  0  0  0  0  0  0
   21.1899   -7.6679    0.0000 O   0  0  0  0  0  0  0  0  0  0  0  0
    6.9559   11.0878    0.0000 O   0  0  0  0  0  0  0  0  0  0  0  0
    7.9709    9.3226    0.0000 O   0  0  0  0  0  0  0  0  0  0  0  0
    3.8989    8.4230    0.0000 O   0  0  0  0  0  0  0  0  0  0  0  0
   18.1480   -4.6068    0.0000 O   0  0  0  0  0  0  0  0  0  0  0  0
   20.9881   -3.5029    0.0000 O   0  0  0  0  0  0  0  0  0  0  0  0
   22.0856   -4.3948    0.0000 O   0  0  0  0  0  0  0  0  0  0  0  0
   17.5332   -2.7037    0.0000 O   0  0  0  0  0  0  0  0  0  0  0  0
   20.0962   -4.6004    0.0000 O   0  0  0  0  0  0  0  0  0  0  0  0
   16.8890   -3.9626    0.0000 O   0  0  0  0  0  0  0  0  0  0  0  0
   15.5777   -2.2844    0.0000 O   0  0  0  0  0  0  0  0  0  0  0  0
   18.7922   -3.3479    0.0000 O   0  0  0  0  0  0  0  0  0  0  0  0
    6.2185    4.1503    0.0000 O   0  0  0  0  0  0  0  0  0  0  0  0
   12.6443   -1.6556    0.0000 O   0  0  0  0  0  0  0  0  0  0  0  0
   16.7651   -1.5163    0.0000 O   0  0  0  0  0  0  0  0  0  0  0  0
   16.3458   -3.4718    0.0000 O   0  0  0  0  0  0  0  0  0  0  0  0
   13.6778    0.7799    0.0000 O   0  0  0  0  0  0  0  0  0  0  0  0
   11.1074    3.1023    0.0000 O   0  0  0  0  0  0  0  0  0  0  0  0
    5.6594    8.6987    0.0000 N   0  0  0  0  0  0  0  0  0  0  0  0
   19.1197   -8.3366    0.0000 N   0  0  0  0  0  0  0  0  0  0  0  0
    4.3186    7.2147    0.0000 N   0  0  0  0  0  0  0  0  0  0  0  0
   19.1197   -9.9460    0.0000 N   0  0  0  0  0  0  0  0  0  0  0  0
   17.3074   -8.1413    0.0000 N   0  0  0  0  0  0  0  0  0  0  0  0
   16.4414   -9.6413    0.0000 N   0  0  0  0  0  0  0  0  0  0  0  0
   17.3074  -11.1413    0.0000 N   0  0  0  0  0  0  0  0  0  0  0  0
   12.0296    0.2475    0.0000 N   0  0  0  0  0  0  0  0  0  0  0  0
    9.4593    2.5699    0.0000 N   0  0  0  0  0  0  0  0  0  0  0  0
    6.2486    9.5067    0.0000 C   0  0  0  0  0  0  0  0  0  0  0  0
    5.6622   10.3167    0.0000 C   0  0  0  0  0  0  0  0  0  0  0  0
    4.7107   10.0093    0.0000 C   0  0  0  0  0  0  0  0  0  0  0  0
   20.3837   -6.0787    0.0000 C   0  0  3  0  0  0  0  0  0  0  0  0
   20.3819   -7.0787    0.0000 C   0  0  3  0  0  0  0  0  0  0  0  0
    7.0587   10.0931    0.0000 C   0  0  0  0  0  0  0  0  0  0  0  0
    7.0566    8.9175    0.0000 C   0  0  0  0  0  0  0  0  0  0  0  0
   19.4331   -5.7680    0.0000 C   0  0  3  0  0  0  0  0  0  0  0  0
   19.4303   -7.3861    0.0000 C   0  0  3  0  0  0  0  0  0  0  0  0
    4.7089    9.0093    0.0000 C   0  0  0  0  0  0  0  0  0  0  0  0
    5.9668    7.7471    0.0000 C   0  0  0  0  0  0  0  0  0  0  0  0
   19.1258   -4.8164    0.0000 C   0  0  0  0  0  0  0  0  0  0  0  0
    5.2964    7.0051    0.0000 C   0  0  0  0  0  0  0  0  0  0  0  0
    6.9446    7.5375    0.0000 C   0  0  0  0  0  0  0  0  0  0  0  0
   18.1735   -8.6413    0.0000 C   0  0  0  0  0  0  0  0  0  0  0  0
   19.7033   -9.1413    0.0000 C   0  0  0  0  0  0  0  0  0  0  0  0
    3.6482    6.4727    0.0000 C   0  0  0  0  0  0  0  0  0  0  0  0
    5.6038    6.0535    0.0000 C   0  0  0  0  0  0  0  0  0  0  0  0
    7.2520    6.5859    0.0000 C   0  0  0  0  0  0  0  0  0  0  0  0
   18.1735   -9.6413    0.0000 C   0  0  0  0  0  0  0  0  0  0  0  0
    6.5816    5.8439    0.0000 C   0  0  0  0  0  0  0  0  0  0  0  0
    2.6704    6.6823    0.0000 C   0  0  0  0  0  0  0  0  0  0  0  0
    3.9556    5.5211    0.0000 C   0  0  0  0  0  0  0  0  0  0  0  0
   17.3074  -10.1413    0.0000 C   0  0  0  0  0  0  0  0  0  0  0  0
   14.2925   -1.1233    0.0000 C   0  0  0  0  0  0  0  0  0  0  0  0
    6.8889    4.8923    0.0000 C   0  0  0  0  0  0  0  0  0  0  0  0
    2.0000    5.9403    0.0000 C   0  0  0  0  0  0  0  0  0  0  0  0
    3.2852    4.7791    0.0000 C   0  0  0  0  0  0  0  0  0  0  0  0
   13.3147   -0.9137    0.0000 C   0  0  3  0  0  0  0  0  0  0  0  0
   15.2703   -1.3329    0.0000 C   0  0  0  0  0  0  0  0  0  0  0  0
   16.4414   -8.6413    0.0000 C   0  0  0  0  0  0  0  0  0  0  0  0
   14.5021   -0.1455    0.0000 C   0  0  0  0  0  0  0  0  0  0  0  0
   14.0829   -2.1010    0.0000 C   0  0  0  0  0  0  0  0  0  0  0  0
   13.0073    0.0379    0.0000 C   0  0  0  0  0  0  0  0  0  0  0  0
    8.1741    3.7311    0.0000 C   0  0  0  0  0  0  0  0  0  0  0  0
   11.7222    1.1991    0.0000 C   0  0  0  0  0  0  0  0  0  0  0  0
    9.1519    3.5215    0.0000 C   0  0  0  0  0  0  0  0  0  0  0  0
   10.7444    1.4087    0.0000 C   0  0  0  0  0  0  0  0  0  0  0  0
   10.4370    2.3603    0.0000 C   0  0  0  0  0  0  0  0  0  0  0  0
    6.1997   10.6258    0.0000 H   0  0  0  0  0  0  0  0  0  0  0  0
    5.4110   10.8835    0.0000 H   0  0  0  0  0  0  0  0  0  0  0  0
    4.5828   10.6160    0.0000 H   0  0  0  0  0  0  0  0  0  0  0  0
    4.0939    9.9456    0.0000 H   0  0  0  0  0  0  0  0  0  0  0  0
   20.2877   -5.4662    0.0000 H   0  0  0  0  0  0  0  0  0  0  0  0
   20.9348   -6.7982    0.0000 H   0  0  0  0  0  0  0  0  0  0  0  0
   18.8209   -5.6700    0.0000 H   0  0  0  0  0  0  0  0  0  0  0  0
    7.3295    9.5353    0.0000 H   0  0  0  0  0  0  0  0  0  0  0  0
    7.6549   10.2629    0.0000 H   0  0  0  0  0  0  0  0  0  0  0  0
    6.6099    8.4876    0.0000 H   0  0  0  0  0  0  0  0  0  0  0  0
    7.4024    8.4029    0.0000 H   0  0  0  0  0  0  0  0  0  0  0  0
   19.8680   -7.8252    0.0000 H   0  0  0  0  0  0  0  0  0  0  0  0
   19.7399   -4.7312    0.0000 H   0  0  0  0  0  0  0  0  0  0  0  0
   19.1485   -4.1969    0.0000 H   0  0  0  0  0  0  0  0  0  0  0  0
    7.3603    7.9975    0.0000 H   0  0  0  0  0  0  0  0  0  0  0  0
   21.7568   -7.4167    0.0000 H   0  0  0  0  0  0  0  0  0  0  0  0
    7.4581   11.4513    0.0000 H   0  0  0  0  0  0  0  0  0  0  0  0
    8.0368    9.9391    0.0000 H   0  0  0  0  0  0  0  0  0  0  0  0
    4.1280    7.8047    0.0000 H   0  0  0  0  0  0  0  0  0  0  0  0
   20.3233   -9.1413    0.0000 H   0  0  0  0  0  0  0  0  0  0  0  0
    4.2544    6.3428    0.0000 H   0  0  0  0  0  0  0  0  0  0  0  0
    5.1881    5.5935    0.0000 H   0  0  0  0  0  0  0  0  0  0  0  0
    7.8582    6.4559    0.0000 H   0  0  0  0  0  0  0  0  0  0  0  0
    2.9037    7.2568    0.0000 H   0  0  0  0  0  0  0  0  0  0  0  0
    2.1452    7.0118    0.0000 H   0  0  0  0  0  0  0  0  0  0  0  0
    4.3364    5.0319    0.0000 H   0  0  0  0  0  0  0  0  0  0  0  0
    4.5035    5.8112    0.0000 H   0  0  0  0  0  0  0  0  0  0  0  0
    1.5400    6.3560    0.0000 H   0  0  0  0  0  0  0  0  0  0  0  0
    1.5843    5.4803    0.0000 H   0  0  0  0  0  0  0  0  0  0  0  0
    2.4600    5.5247    0.0000 H   0  0  0  0  0  0  0  0  0  0  0  0
    2.8251    5.1948    0.0000 H   0  0  0  0  0  0  0  0  0  0  0  0
    2.8695    4.3191    0.0000 H   0  0  0  0  0  0  0  0  0  0  0  0
    3.7452    4.3635    0.0000 H   0  0  0  0  0  0  0  0  0  0  0  0
   13.5053   -1.5036    0.0000 H   0  0  0  0  0  0  0  0  0  0  0  0
   15.8844   -1.2476    0.0000 H   0  0  0  0  0  0  0  0  0  0  0  0
   15.2930   -0.7133    0.0000 H   0  0  0  0  0  0  0  0  0  0  0  0
   21.4903   -3.1394    0.0000 H   0  0  0  0  0  0  0  0  0  0  0  0
   22.4491   -4.8970    0.0000 H   0  0  0  0  0  0  0  0  0  0  0  0
   15.9045   -8.3313    0.0000 H   0  0  0  0  0  0  0  0  0  0  0  0
   15.1083   -0.2754    0.0000 H   0  0  0  0  0  0  0  0  0  0  0  0
   14.6321    0.4608    0.0000 H   0  0  0  0  0  0  0  0  0  0  0  0
   13.8959   -0.0155    0.0000 H   0  0  0  0  0  0  0  0  0  0  0  0
   13.4767   -1.9711    0.0000 H   0  0  0  0  0  0  0  0  0  0  0  0
   13.9529   -2.7073    0.0000 H   0  0  0  0  0  0  0  0  0  0  0  0
   14.6891   -2.2310    0.0000 H   0  0  0  0  0  0  0  0  0  0  0  0
   16.7591   -4.5688    0.0000 H   0  0  0  0  0  0  0  0  0  0  0  0
   16.7705  -11.4513    0.0000 H   0  0  0  0  0  0  0  0  0  0  0  0
   17.8444  -11.4513    0.0000 H   0  0  0  0  0  0  0  0  0  0  0  0
    7.5600    3.6459    0.0000 H   0  0  0  0  0  0  0  0  0  0  0  0
    8.1514    3.1115    0.0000 H   0  0  0  0  0  0  0  0  0  0  0  0
   12.0381   -1.5257    0.0000 H   0  0  0  0  0  0  0  0  0  0  0  0
   11.6139   -0.2125    0.0000 H   0  0  0  0  0  0  0  0  0  0  0  0
   12.3363    1.2844    0.0000 H   0  0  0  0  0  0  0  0  0  0  0  0
   11.7449    1.8187    0.0000 H   0  0  0  0  0  0  0  0  0  0  0  0
   17.3550   -1.3257    0.0000 H   0  0  0  0  0  0  0  0  0  0  0  0
    9.7660    3.6067    0.0000 H   0  0  0  0  0  0  0  0  0  0  0  0
    9.1746    4.1411    0.0000 H   0  0  0  0  0  0  0  0  0  0  0  0
   10.1303    1.3235    0.0000 H   0  0  0  0  0  0  0  0  0  0  0  0
   10.7217    0.7892    0.0000 H   0  0  0  0  0  0  0  0  0  0  0  0
    9.0436    2.1099    0.0000 H   0  0  0  0  0  0  0  0  0  0  0  0
  1 59  1  0  0  0  0
  1 68  1  0  0  0  0
  2  6  1  0  0  0  0
  2 12  1  0  0  0  0
  2 13  1  0  0  0  0
  2 15  2  0  0  0  0
  3 11  1  0  0  0  0
  3 14  1  0  0  0  0
  3 16  1  0  0  0  0
  3 18  2  0  0  0  0
  4 14  1  0  0  0  0
  4 17  1  0  0  0  0
  4 21  1  0  0  0  0
  4 22  2  0  0  0  0
  5 41  1  0  0  0  0
  5 42  1  0  0  0  0
  6 37  1  0  0  0  0
  7 38  1  0  0  0  0
  7 88  1  0  0  0  0
  8 39  1  0  0  0  0
  8 89  1  0  0  0  0
  9 40  1  0  0  0  0
  9 90  1  0  0  0  0
 10 43  2  0  0  0  0
 11 45  1  0  0  0  0
 12109  1  0  0  0  0
 13110  1  0  0  0  0
 16118  1  0  0  0  0
 17 63  1  0  0  0  0
 19 59  2  0  0  0  0
 20 62  1  0  0  0  0
 20123  1  0  0  0  0
 21127  1  0  0  0  0
 23 67  2  0  0  0  0
 24 72  2  0  0  0  0
 25 34  1  0  0  0  0
 25 43  1  0  0  0  0
 25 44  1  0  0  0  0
 26 42  1  0  0  0  0
 26 48  1  0  0  0  0
 26 49  1  0  0  0  0
 27 46  1  0  0  0  0
 27 50  1  0  0  0  0
 27 91  1  0  0  0  0
 28 49  2  0  0  0  0
 28 53  1  0  0  0  0
 29 48  2  0  0  0  0
 29 64  1  0  0  0  0
 30 57  1  0  0  0  0
 30 64  2  0  0  0  0
 31 57  1  0  0  0  0
 31119  1  0  0  0  0
 31120  1  0  0  0  0
 32 67  1  0  0  0  0
 32 69  1  0  0  0  0
 32124  1  0  0  0  0
 33 70  1  0  0  0  0
 33 72  1  0  0  0  0
 33132  1  0  0  0  0
 34 35  1  0  0  0  0
 34 39  1  0  0  0  0
 34 40  1  0  0  0  0
 35 36  1  0  0  0  0
 35 73  1  0  0  0  0
 35 74  1  0  0  0  0
 36 43  1  0  0  0  0
 36 75  1  0  0  0  0
 36 76  1  0  0  0  0
 37 38  1  0  0  0  0
 37 41  1  0  0  0  0
 37 77  1  0  0  0  0
 38 42  1  0  0  0  0
 38 78  1  0  0  0  0
 39 80  1  0  0  0  0
 39 81  1  0  0  0  0
 40 82  1  0  0  0  0
 40 83  1  0  0  0  0
 41 45  1  0  0  0  0
 41 79  1  0  0  0  0
 42 84  1  0  0  0  0
 44 46  2  0  0  0  0
 44 47  1  0  0  0  0
 45 85  1  0  0  0  0
 45 86  1  0  0  0  0
 46 51  1  0  0  0  0
 47 52  2  0  0  0  0
 47 87  1  0  0  0  0
 48 53  1  0  0  0  0
 49 92  1  0  0  0  0
 50 55  1  0  0  0  0
 50 56  1  0  0  0  0
 50 93  1  0  0  0  0
 51 54  2  0  0  0  0
 51 94  1  0  0  0  0
 52 54  1  0  0  0  0
 52 95  1  0  0  0  0
 53 57  2  0  0  0  0
 54 59  1  0  0  0  0
 55 60  1  0  0  0  0
 55 96  1  0  0  0  0
 55 97  1  0  0  0  0
 56 61  1  0  0  0  0
 56 98  1  0  0  0  0
 56 99  1  0  0  0  0
 58 62  1  0  0  0  0
 58 63  1  0  0  0  0
 58 65  1  0  0  0  0
 58 66  1  0  0  0  0
 60100  1  0  0  0  0
 60101  1  0  0  0  0
 60102  1  0  0  0  0
 61103  1  0  0  0  0
 61104  1  0  0  0  0
 61105  1  0  0  0  0
 62 67  1  0  0  0  0
 62106  1  0  0  0  0
 63107  1  0  0  0  0
 63108  1  0  0  0  0
 64111  1  0  0  0  0
 65112  1  0  0  0  0
 65113  1  0  0  0  0
 65114  1  0  0  0  0
 66115  1  0  0  0  0
 66116  1  0  0  0  0
 66117  1  0  0  0  0
 68 70  1  0  0  0  0
 68121  1  0  0  0  0
 68122  1  0  0  0  0
 69 71  1  0  0  0  0
 69125  1  0  0  0  0
 69126  1  0  0  0  0
 70128  1  0  0  0  0
 70129  1  0  0  0  0
 71 72  1  0  0  0  0
 71130  1  0  0  0  0
 71131  1  0  0  0  0
M  END
> <PUBCHEM_COMPOUND_CID>
155489295

> <PUBCHEM_COMPOUND_CANONICALIZED>
1

> <PUBCHEM_CACTVS_COMPLEXITY>
2010

> <PUBCHEM_CACTVS_HBOND_ACCEPTOR>
26

> <PUBCHEM_CACTVS_HBOND_DONOR>
12

> <PUBCHEM_CACTVS_ROTATABLE_BOND>
28

> <PUBCHEM_CACTVS_SUBSKEYS>
AAADcfB//gNAAAAAAAAAAAAAAAAAAWLEgAA8QAAAAAAAAFgB/AAAHgQQCCAADrzl3wa38L/MFxioQydzdIKCgC01ErAJ2KFodNiLeDrg3dGeZQhvlgL7yaf+vQKfCAAAQAAAACAQAACAAAAAQAAAAAAAAA==

> <PUBCHEM_IUPAC_OPENEYE_NAME>
S-[2-[3-[[4-[[[5-(6-aminopurin-9-yl)-4-hydroxy-3-phosphonooxy-tetrahydrofuran-2-yl]methoxy-hydroxy-phosphoryl]oxy-hydroxy-phosphoryl]oxy-2-hydroxy-3,3-dimethyl-butanoyl]amino]propanoylamino]ethyl] 4-[2,2-bis(hydroxymethyl)-5-oxo-pyrrolidin-1-yl]-3-(1-ethylpropylamino)benzenecarbothioate

> <PUBCHEM_IUPAC_CAS_NAME>
4-[2,2-bis(hydroxymethyl)-5-oxo-1-pyrrolidinyl]-3-(pentan-3-ylamino)benzenecarbothioic acid S-[2-[[3-[[4-[[[5-(6-aminopurin-9-yl)-4-hydroxy-3-phosphonooxy-2-oxolanyl]methoxy-hydroxyphosphoryl]oxy-hydroxyphosphoryl]oxy-2-hydroxy-3,3-dimethyl-1-oxobutyl]amino]-1-oxopropyl]amino]ethyl] ester

> <PUBCHEM_IUPAC_NAME_MARKUP>
<I>S</I>-[2-[3-[[4-[[[5-(6-aminopurin-9-yl)-4-hydroxy-3-phosphonooxyoxolan-2-yl]methoxy-hydroxyphosphoryl]oxy-hydroxyphosphoryl]oxy-2-hydroxy-3,3-dimethylbutanoyl]amino]propanoylamino]ethyl] 4-[2,2-bis(hydroxymethyl)-5-oxopyrrolidin-1-yl]-3-(pentan-3-ylamino)benzenecarbothioate

> <PUBCHEM_IUPAC_NAME>
S-[2-[3-[[4-[[[5-(6-aminopurin-9-yl)-4-hydroxy-3-phosphonooxyoxolan-2-yl]methoxy-hydroxyphosphoryl]oxy-hydroxyphosphoryl]oxy-2-hydroxy-3,3-dimethylbutanoyl]amino]propanoylamino]ethyl] 4-[2,2-bis(hydroxymethyl)-5-oxopyrrolidin-1-yl]-3-(pentan-3-ylamino)benzenecarbothioate

> <PUBCHEM_IUPAC_SYSTEMATIC_NAME>
S-[2-[3-[[4-[[[5-(6-aminopurin-9-yl)-4-oxidanyl-3-phosphonooxy-oxolan-2-yl]methoxy-oxidanyl-phosphoryl]oxy-oxidanyl-phosphoryl]oxy-3,3-dimethyl-2-oxidanyl-butanoyl]amino]propanoylamino]ethyl] 4-[2,2-bis(hydroxymethyl)-5-oxidanylidene-pyrrolidin-1-yl]-3-(pentan-3-ylamino)benzenecarbothioate

> <PUBCHEM_IUPAC_TRADITIONAL_NAME>
3-(1-ethylpropylamino)-4-(5-keto-2,2-dimethylol-pyrrolidino)thiobenzoic acid S-[2-[3-[[4-[[(5-adenin-9-yl-4-hydroxy-3-phosphonooxy-tetrahydrofuran-2-yl)methoxy-hydroxy-phosphoryl]oxy-hydroxy-phosphoryl]oxy-2-hydroxy-3,3-dimethyl-butanoyl]amino]propanoylamino]ethyl] ester

> <PUBCHEM_IUPAC_INCHI>
InChI=1S/C39H60N9O20P3S/c1-5-23(6-2)46-24-15-22(7-8-25(24)48-28(52)9-11-39(48,17-49)18-50)37(56)72-14-13-41-27(51)10-12-42-35(55)32(54)38(3,4)19-65-71(62,63)68-70(60,61)64-16-26-31(67-69(57,58)59)30(53)36(66-26)47-21-45-29-33(40)43-20-44-34(29)47/h7-8,15,20-21,23,26,30-32,36,46,49-50,53-54H,5-6,9-14,16-19H2,1-4H3,(H,41,51)(H,42,55)(H,60,61)(H,62,63)(H2,40,43,44)(H2,57,58,59)

> <PUBCHEM_IUPAC_INCHIKEY>
NYTCHUDSRFYQNA-UHFFFAOYSA-N

> <PUBCHEM_XLOGP3_AA>
-4.2

> <PUBCHEM_EXACT_MASS>
1099.28881750

> <PUBCHEM_MOLECULAR_FORMULA>
C39H60N9O20P3S

> <PUBCHEM_MOLECULAR_WEIGHT>
1099.9

> <PUBCHEM_OPENEYE_CAN_SMILES>
CCC(CC)NC1=C(C=CC(=C1)C(=O)SCCNC(=O)CCNC(=O)C(C(C)(C)COP(=O)(O)OP(=O)(O)OCC2C(C(C(O2)N3C=NC4=C(N=CN=C43)N)O)OP(=O)(O)O)O)N5C(=O)CCC5(CO)CO

> <PUBCHEM_OPENEYE_ISO_SMILES>
CCC(CC)NC1=C(C=CC(=C1)C(=O)SCCNC(=O)CCNC(=O)C(C(C)(C)COP(=O)(O)OP(=O)(O)OCC2C(C(C(O2)N3C=NC4=C(N=CN=C43)N)O)OP(=O)(O)O)O)N5C(=O)CCC5(CO)CO

> <PUBCHEM_CACTVS_TPSA>
462

> <PUBCHEM_MONOISOTOPIC_WEIGHT>
1099.28881750

> <PUBCHEM_TOTAL_CHARGE>
0

> <PUBCHEM_HEAVY_ATOM_COUNT>
72

> <PUBCHEM_ATOM_DEF_STEREO_COUNT>
0

> <PUBCHEM_ATOM_UDEF_STEREO_COUNT>
5

> <PUBCHEM_BOND_DEF_STEREO_COUNT>
0

> <PUBCHEM_BOND_UDEF_STEREO_COUNT>
0

> <PUBCHEM_ISOTOPIC_ATOM_COUNT>
0

> <PUBCHEM_COMPONENT_COUNT>
1

> <PUBCHEM_CACTVS_TAUTO_COUNT>
-1

> <PUBCHEM_COORDINATE_TYPE>
1
5
255

> <PUBCHEM_BONDANNOTATIONS>
62  20  3
42  26  3
26  48  8
26  49  8
28  49  8
28  53  8
29  48  8
29  64  8
30  57  8
30  64  8
41  45  3
44  46  8
44  47  8
46  51  8
47  52  8
48  53  8
51  54  8
52  54  8
53  57  8
37  6  3
38  7  3

$$$$
155489303
  -OEChem-03012215082D

119124  0     1  0  0  0  0  0999 V2000
    7.3038    7.2713    0.0000 S   0  0  0  0  0  0  0  0  0  0  0  0
   12.5948   -7.1766    0.0000 P   0  0  0  0  0  0  0  0  0  0  0  0
   14.2320   -3.7287    0.0000 P   0  0  3  0  0  0  0  0  0  0  0  0
   13.3659   -2.2287    0.0000 P   0  0  3  0  0  0  0  0  0  0  0  0
   15.9070   -6.8165    0.0000 O   0  0  0  0  0  0  0  0  0  0  0  0
   13.3379   -6.5075    0.0000 O   0  0  0  0  0  0  0  0  0  0  0  0
   14.0102   -8.5766    0.0000 O   0  0  0  0  0  0  0  0  0  0  0  0
   14.2320   -4.7287    0.0000 O   0  0  0  0  0  0  0  0  0  0  0  0
   11.8516   -7.8458    0.0000 O   0  0  0  0  0  0  0  0  0  0  0  0
   11.9256   -6.4335    0.0000 O   0  0  0  0  0  0  0  0  0  0  0  0
   14.2320   -2.7287    0.0000 O   0  0  0  0  0  0  0  0  0  0  0  0
   13.2639   -7.9198    0.0000 O   0  0  0  0  0  0  0  0  0  0  0  0
   12.4999   -1.7287    0.0000 O   0  0  0  0  0  0  0  0  0  0  0  0
   15.2320   -3.7287    0.0000 O   0  0  0  0  0  0  0  0  0  0  0  0
   13.2320   -3.7287    0.0000 O   0  0  0  0  0  0  0  0  0  0  0  0
    9.9018   -0.2287    0.0000 O   0  0  0  0  0  0  0  0  0  0  0  0
   12.8659   -3.0948    0.0000 O   0  0  0  0  0  0  0  0  0  0  0  0
   13.8659   -1.3627    0.0000 O   0  0  0  0  0  0  0  0  0  0  0  0
   11.6339    1.7713    0.0000 O   0  0  0  0  0  0  0  0  0  0  0  0
    9.9018    4.7713    0.0000 O   0  0  0  0  0  0  0  0  0  0  0  0
    7.3038    9.2713    0.0000 O   0  0  0  0  0  0  0  0  0  0  0  0
    5.5717    7.2713    0.0000 O   0  0  0  0  0  0  0  0  0  0  0  0
    2.2120    9.8637    0.0000 O   0  0  0  0  0  0  0  0  0  0  0  0
    3.5389   10.9770    0.0000 O   0  0  0  0  0  0  0  0  0  0  0  0
   16.1858   -8.5766    0.0000 N   0  0  0  0  0  0  0  0  0  0  0  0
   17.4895   -9.5204    0.0000 N   0  0  0  0  0  0  0  0  0  0  0  0
   14.9649   -9.9301    0.0000 N   0  0  0  0  0  0  0  0  0  0  0  0
   15.6721  -11.5112    0.0000 N   0  0  0  0  0  0  0  0  0  0  0  0
   17.3950  -11.6892    0.0000 N   0  0  0  0  0  0  0  0  0  0  0  0
    9.9018    1.7713    0.0000 N   0  0  0  0  0  0  0  0  0  0  0  0
    8.1698    4.7713    0.0000 N   0  0  0  0  0  0  0  0  0  0  0  0
    5.5717    9.2713    0.0000 N   0  0  0  0  0  0  0  0  0  0  0  0
   14.2890   -6.8165    0.0000 C   0  0  3  0  0  0  0  0  0  0  0  0
   14.5980   -7.7676    0.0000 C   0  0  3  0  0  0  0  0  0  0  0  0
   15.0980   -6.2287    0.0000 C   0  0  3  0  0  0  0  0  0  0  0  0
   15.5980   -7.7676    0.0000 C   0  0  3  0  0  0  0  0  0  0  0  0
   15.0980   -5.2287    0.0000 C   0  0  0  0  0  0  0  0  0  0  0  0
   15.8778   -9.5218    0.0000 C   0  0  0  0  0  0  0  0  0  0  0  0
   17.1798   -8.5757    0.0000 C   0  0  0  0  0  0  0  0  0  0  0  0
   16.6878  -10.1081    0.0000 C   0  0  0  0  0  0  0  0  0  0  0  0
   11.6339   -0.2287    0.0000 C   0  0  0  0  0  0  0  0  0  0  0  0
   16.5850  -11.1028    0.0000 C   0  0  0  0  0  0  0  0  0  0  0  0
   10.7679    0.2713    0.0000 C   0  0  3  0  0  0  0  0  0  0  0  0
   12.4999   -0.7287    0.0000 C   0  0  0  0  0  0  0  0  0  0  0  0
   14.8621  -10.9248    0.0000 C   0  0  0  0  0  0  0  0  0  0  0  0
   11.1339   -1.0947    0.0000 C   0  0  0  0  0  0  0  0  0  0  0  0
   12.1339    0.6373    0.0000 C   0  0  0  0  0  0  0  0  0  0  0  0
   10.7679    1.2713    0.0000 C   0  0  0  0  0  0  0  0  0  0  0  0
    9.9018    2.7713    0.0000 C   0  0  0  0  0  0  0  0  0  0  0  0
    9.0358    3.2713    0.0000 C   0  0  0  0  0  0  0  0  0  0  0  0
    9.0358    4.2713    0.0000 C   0  0  0  0  0  0  0  0  0  0  0  0
    8.1698    5.7713    0.0000 C   0  0  0  0  0  0  0  0  0  0  0  0
    7.3038    6.2713    0.0000 C   0  0  0  0  0  0  0  0  0  0  0  0
    5.5717   10.2713    0.0000 C   0  0  0  0  0  0  0  0  0  0  0  0
    6.4377   10.7713    0.0000 C   0  0  0  0  0  0  0  0  0  0  0  0
    6.4377   11.7713    0.0000 C   0  0  0  0  0  0  0  0  0  0  0  0
    4.7057    8.7713    0.0000 C   0  0  0  0  0  0  0  0  0  0  0  0
    4.7057   10.7713    0.0000 C   0  0  0  0  0  0  0  0  0  0  0  0
    6.4377    8.7713    0.0000 C   0  0  0  0  0  0  0  0  0  0  0  0
    7.3317   10.2366    0.0000 C   0  0  0  0  0  0  0  0  0  0  0  0
    5.5717   12.2713    0.0000 C   0  0  0  0  0  0  0  0  0  0  0  0
    6.4377    7.7713    0.0000 C   0  0  0  0  0  0  0  0  0  0  0  0
    4.7057   11.7713    0.0000 C   0  0  0  0  0  0  0  0  0  0  0  0
    7.3317   12.3059    0.0000 C   0  0  0  0  0  0  0  0  0  0  0  0
    3.8396    9.2713    0.0000 C   0  0  0  0  0  0  0  0  0  0  0  0
    4.7057    7.7713    0.0000 C   0  0  0  0  0  0  0  0  0  0  0  0
    8.2377   10.7505    0.0000 C   0  0  0  0  0  0  0  0  0  0  0  0
    8.2377   11.7921    0.0000 C   0  0  0  0  0  0  0  0  0  0  0  0
    2.9736    8.7713    0.0000 C   0  0  0  0  0  0  0  0  0  0  0  0
    3.8396    7.2713    0.0000 C   0  0  0  0  0  0  0  0  0  0  0  0
    2.9736    7.7713    0.0000 C   0  0  0  0  0  0  0  0  0  0  0  0
    3.1969   10.0373    0.0000 C   0  0  0  0  0  0  0  0  0  0  0  0
   13.8506   -7.2549    0.0000 H   0  0  0  0  0  0  0  0  0  0  0  0
   13.9856   -7.6706    0.0000 H   0  0  0  0  0  0  0  0  0  0  0  0
   15.6504   -5.9473    0.0000 H   0  0  0  0  0  0  0  0  0  0  0  0
   16.2103   -7.6706    0.0000 H   0  0  0  0  0  0  0  0  0  0  0  0
   15.7086   -5.3364    0.0000 H   0  0  0  0  0  0  0  0  0  0  0  0
   15.3100   -4.6461    0.0000 H   0  0  0  0  0  0  0  0  0  0  0  0
   13.3936   -8.5118    0.0000 H   0  0  0  0  0  0  0  0  0  0  0  0
   17.5434   -8.0735    0.0000 H   0  0  0  0  0  0  0  0  0  0  0  0
   10.2309    0.5813    0.0000 H   0  0  0  0  0  0  0  0  0  0  0  0
   13.1105   -0.8364    0.0000 H   0  0  0  0  0  0  0  0  0  0  0  0
   12.7120   -0.1461    0.0000 H   0  0  0  0  0  0  0  0  0  0  0  0
   11.2620   -7.6542    0.0000 H   0  0  0  0  0  0  0  0  0  0  0  0
   11.3192   -6.5624    0.0000 H   0  0  0  0  0  0  0  0  0  0  0  0
   14.2961  -11.1779    0.0000 H   0  0  0  0  0  0  0  0  0  0  0  0
   10.5969   -0.7848    0.0000 H   0  0  0  0  0  0  0  0  0  0  0  0
   10.8239   -1.6317    0.0000 H   0  0  0  0  0  0  0  0  0  0  0  0
   11.6708   -1.4048    0.0000 H   0  0  0  0  0  0  0  0  0  0  0  0
   12.6708    0.3273    0.0000 H   0  0  0  0  0  0  0  0  0  0  0  0
   12.4439    1.1742    0.0000 H   0  0  0  0  0  0  0  0  0  0  0  0
   11.5969    0.9473    0.0000 H   0  0  0  0  0  0  0  0  0  0  0  0
   15.5420   -3.1918    0.0000 H   0  0  0  0  0  0  0  0  0  0  0  0
   17.3313  -12.3059    0.0000 H   0  0  0  0  0  0  0  0  0  0  0  0
   17.9610  -11.4361    0.0000 H   0  0  0  0  0  0  0  0  0  0  0  0
    9.9018   -0.8487    0.0000 H   0  0  0  0  0  0  0  0  0  0  0  0
    9.3649    1.4613    0.0000 H   0  0  0  0  0  0  0  0  0  0  0  0
   10.5124    2.6636    0.0000 H   0  0  0  0  0  0  0  0  0  0  0  0
   10.1139    3.3539    0.0000 H   0  0  0  0  0  0  0  0  0  0  0  0
   12.2459   -3.0948    0.0000 H   0  0  0  0  0  0  0  0  0  0  0  0
    8.4252    3.3789    0.0000 H   0  0  0  0  0  0  0  0  0  0  0  0
    8.8238    2.6887    0.0000 H   0  0  0  0  0  0  0  0  0  0  0  0
    7.6328    4.4613    0.0000 H   0  0  0  0  0  0  0  0  0  0  0  0
    8.7804    5.6636    0.0000 H   0  0  0  0  0  0  0  0  0  0  0  0
    8.3818    6.3539    0.0000 H   0  0  0  0  0  0  0  0  0  0  0  0
    6.6932    6.3789    0.0000 H   0  0  0  0  0  0  0  0  0  0  0  0
    7.0917    5.6887    0.0000 H   0  0  0  0  0  0  0  0  0  0  0  0
    4.1687   10.4613    0.0000 H   0  0  0  0  0  0  0  0  0  0  0  0
    7.3245    9.6166    0.0000 H   0  0  0  0  0  0  0  0  0  0  0  0
    5.5717   12.8913    0.0000 H   0  0  0  0  0  0  0  0  0  0  0  0
    4.1687   12.0813    0.0000 H   0  0  0  0  0  0  0  0  0  0  0  0
    7.3245   12.9259    0.0000 H   0  0  0  0  0  0  0  0  0  0  0  0
    5.2426    7.4613    0.0000 H   0  0  0  0  0  0  0  0  0  0  0  0
    8.7735   10.4384    0.0000 H   0  0  0  0  0  0  0  0  0  0  0  0
    8.7735   12.1042    0.0000 H   0  0  0  0  0  0  0  0  0  0  0  0
    2.4367    9.0813    0.0000 H   0  0  0  0  0  0  0  0  0  0  0  0
    3.8396    6.6513    0.0000 H   0  0  0  0  0  0  0  0  0  0  0  0
    2.4367    7.4613    0.0000 H   0  0  0  0  0  0  0  0  0  0  0  0
    2.0000    9.2811    0.0000 H   0  0  0  0  0  0  0  0  0  0  0  0
  1 53  1  0  0  0  0
  1 62  1  0  0  0  0
  2  6  1  0  0  0  0
  2  9  1  0  0  0  0
  2 10  1  0  0  0  0
  2 12  2  0  0  0  0
  3  8  1  0  0  0  0
  3 11  1  0  0  0  0
  3 14  1  0  0  0  0
  3 15  2  0  0  0  0
  4 11  1  0  0  0  0
  4 13  1  0  0  0  0
  4 17  1  0  0  0  0
  4 18  2  0  0  0  0
  5 35  1  0  0  0  0
  5 36  1  0  0  0  0
  6 33  1  0  0  0  0
  7 34  1  0  0  0  0
  7 79  1  0  0  0  0
  8 37  1  0  0  0  0
  9 84  1  0  0  0  0
 10 85  1  0  0  0  0
 13 44  1  0  0  0  0
 14 93  1  0  0  0  0
 16 43  1  0  0  0  0
 16 96  1  0  0  0  0
 17100  1  0  0  0  0
 19 48  2  0  0  0  0
 20 51  2  0  0  0  0
 21 59  2  0  0  0  0
 22 62  2  0  0  0  0
 23 72  1  0  0  0  0
 23119  1  0  0  0  0
 24 72  2  0  0  0  0
 25 36  1  0  0  0  0
 25 38  1  0  0  0  0
 25 39  1  0  0  0  0
 26 39  2  0  0  0  0
 26 40  1  0  0  0  0
 27 38  2  0  0  0  0
 27 45  1  0  0  0  0
 28 42  1  0  0  0  0
 28 45  2  0  0  0  0
 29 42  1  0  0  0  0
 29 94  1  0  0  0  0
 29 95  1  0  0  0  0
 30 48  1  0  0  0  0
 30 49  1  0  0  0  0
 30 97  1  0  0  0  0
 31 51  1  0  0  0  0
 31 52  1  0  0  0  0
 31103  1  0  0  0  0
 32 54  1  0  0  0  0
 32 57  1  0  0  0  0
 32 59  1  0  0  0  0
 33 34  1  0  0  0  0
 33 35  1  0  0  0  0
 33 73  1  0  0  0  0
 34 36  1  0  0  0  0
 34 74  1  0  0  0  0
 35 37  1  0  0  0  0
 35 75  1  0  0  0  0
 36 76  1  0  0  0  0
 37 77  1  0  0  0  0
 37 78  1  0  0  0  0
 38 40  1  0  0  0  0
 39 80  1  0  0  0  0
 40 42  2  0  0  0  0
 41 43  1  0  0  0  0
 41 44  1  0  0  0  0
 41 46  1  0  0  0  0
 41 47  1  0  0  0  0
 43 48  1  0  0  0  0
 43 81  1  0  0  0  0
 44 82  1  0  0  0  0
 44 83  1  0  0  0  0
 45 86  1  0  0  0  0
 46 87  1  0  0  0  0
 46 88  1  0  0  0  0
 46 89  1  0  0  0  0
 47 90  1  0  0  0  0
 47 91  1  0  0  0  0
 47 92  1  0  0  0  0
 49 50  1  0  0  0  0
 49 98  1  0  0  0  0
 49 99  1  0  0  0  0
 50 51  1  0  0  0  0
 50101  1  0  0  0  0
 50102  1  0  0  0  0
 52 53  1  0  0  0  0
 52104  1  0  0  0  0
 52105  1  0  0  0  0
 53106  1  0  0  0  0
 53107  1  0  0  0  0
 54 55  1  0  0  0  0
 54 58  2  0  0  0  0
 55 56  1  0  0  0  0
 55 60  2  0  0  0  0
 56 61  1  0  0  0  0
 56 64  2  0  0  0  0
 57 65  1  0  0  0  0
 57 66  2  0  0  0  0
 58 63  1  0  0  0  0
 58108  1  0  0  0  0
 59 62  1  0  0  0  0
 60 67  1  0  0  0  0
 60109  1  0  0  0  0
 61 63  2  0  0  0  0
 61110  1  0  0  0  0
 63111  1  0  0  0  0
 64 68  1  0  0  0  0
 64112  1  0  0  0  0
 65 69  2  0  0  0  0
 65 72  1  0  0  0  0
 66 70  1  0  0  0  0
 66113  1  0  0  0  0
 67 68  2  0  0  0  0
 67114  1  0  0  0  0
 68115  1  0  0  0  0
 69 71  1  0  0  0  0
 69116  1  0  0  0  0
 70 71  2  0  0  0  0
 70117  1  0  0  0  0
 71118  1  0  0  0  0
M  END
> <PUBCHEM_COMPOUND_CID>
155489303

> <PUBCHEM_COMPOUND_CANONICALIZED>
1

> <PUBCHEM_CACTVS_COMPLEXITY>
2080

> <PUBCHEM_CACTVS_HBOND_ACCEPTOR>
25

> <PUBCHEM_CACTVS_HBOND_DONOR>
10

> <PUBCHEM_CACTVS_ROTATABLE_BOND>
24

> <PUBCHEM_CACTVS_SUBSKEYS>
AAADcfB//gNAAAAAAAAAAAAAAAAAAWJAAAA8YMEAAAAAAFjB/AAAHgQQCCAADhzl3wa3+P/MFxioQyfzfIKCgC01ErAJ2KHofNiLfnrA3fGedYhv1gP72ef6+KKPgAAAQAASAAAAAACAACQAAAAAAAAAAA==

> <PUBCHEM_IUPAC_OPENEYE_NAME>
2-[[2-[2-[3-[[4-[[[5-(6-aminopurin-9-yl)-4-hydroxy-3-phosphonooxy-tetrahydrofuran-2-yl]methoxy-hydroxy-phosphoryl]oxy-hydroxy-phosphoryl]oxy-2-hydroxy-3,3-dimethyl-butanoyl]amino]propanoylamino]ethylsulfanyl]-2-oxo-acetyl]-(1-naphthyl)amino]benzoic acid

> <PUBCHEM_IUPAC_CAS_NAME>
2-[[2-[2-[[3-[[4-[[[5-(6-aminopurin-9-yl)-4-hydroxy-3-phosphonooxy-2-oxolanyl]methoxy-hydroxyphosphoryl]oxy-hydroxyphosphoryl]oxy-2-hydroxy-3,3-dimethyl-1-oxobutyl]amino]-1-oxopropyl]amino]ethylthio]-1,2-dioxoethyl]-(1-naphthalenyl)amino]benzoic acid

> <PUBCHEM_IUPAC_NAME_MARKUP>
2-[[2-[2-[3-[[4-[[[5-(6-aminopurin-9-yl)-4-hydroxy-3-phosphonooxyoxolan-2-yl]methoxy-hydroxyphosphoryl]oxy-hydroxyphosphoryl]oxy-2-hydroxy-3,3-dimethylbutanoyl]amino]propanoylamino]ethylsulfanyl]-2-oxoacetyl]-naphthalen-1-ylamino]benzoic acid

> <PUBCHEM_IUPAC_NAME>
2-[[2-[2-[3-[[4-[[[5-(6-aminopurin-9-yl)-4-hydroxy-3-phosphonooxyoxolan-2-yl]methoxy-hydroxyphosphoryl]oxy-hydroxyphosphoryl]oxy-2-hydroxy-3,3-dimethylbutanoyl]amino]propanoylamino]ethylsulfanyl]-2-oxoacetyl]-naphthalen-1-ylamino]benzoic acid

> <PUBCHEM_IUPAC_SYSTEMATIC_NAME>
2-[[2-[2-[3-[[4-[[[5-(6-aminopurin-9-yl)-4-oxidanyl-3-phosphonooxy-oxolan-2-yl]methoxy-oxidanyl-phosphoryl]oxy-oxidanyl-phosphoryl]oxy-3,3-dimethyl-2-oxidanyl-butanoyl]amino]propanoylamino]ethylsulfanyl]-2-oxidanylidene-ethanoyl]-naphthalen-1-yl-amino]benzoic acid

> <PUBCHEM_IUPAC_TRADITIONAL_NAME>
2-[[2-[2-[3-[[4-[[(5-adenin-9-yl-4-hydroxy-3-phosphonooxy-tetrahydrofuran-2-yl)methoxy-hydroxy-phosphoryl]oxy-hydroxy-phosphoryl]oxy-2-hydroxy-3,3-dimethyl-butanoyl]amino]propanoylamino]ethylthio]-2-keto-acetyl]-(1-naphthyl)amino]benzoic acid

> <PUBCHEM_IUPAC_INCHI>
InChI=1S/C40H47N8O20P3S/c1-40(2,19-65-71(62,63)68-70(60,61)64-18-27-31(67-69(57,58)59)30(50)37(66-27)47-21-46-29-33(41)44-20-45-34(29)47)32(51)35(52)43-15-14-28(49)42-16-17-72-39(56)36(53)48(26-12-6-5-11-24(26)38(54)55)25-13-7-9-22-8-3-4-10-23(22)25/h3-13,20-21,27,30-32,37,50-51H,14-19H2,1-2H3,(H,42,49)(H,43,52)(H,54,55)(H,60,61)(H,62,63)(H2,41,44,45)(H2,57,58,59)

> <PUBCHEM_IUPAC_INCHIKEY>
ODDPEXDXFBAQNV-UHFFFAOYSA-N

> <PUBCHEM_XLOGP3_AA>
-1.9

> <PUBCHEM_EXACT_MASS>
1084.18401808

> <PUBCHEM_MOLECULAR_FORMULA>
C40H47N8O20P3S

> <PUBCHEM_MOLECULAR_WEIGHT>
1084.8

> <PUBCHEM_OPENEYE_CAN_SMILES>
CC(C)(COP(=O)(O)OP(=O)(O)OCC1C(C(C(O1)N2C=NC3=C(N=CN=C32)N)O)OP(=O)(O)O)C(C(=O)NCCC(=O)NCCSC(=O)C(=O)N(C4=CC=CC=C4C(=O)O)C5=CC=CC6=CC=CC=C65)O

> <PUBCHEM_OPENEYE_ISO_SMILES>
CC(C)(COP(=O)(O)OP(=O)(O)OCC1C(C(C(O1)N2C=NC3=C(N=CN=C32)N)O)OP(=O)(O)O)C(C(=O)NCCC(=O)NCCSC(=O)C(=O)N(C4=CC=CC=C4C(=O)O)C5=CC=CC6=CC=CC=C65)O

> <PUBCHEM_CACTVS_TPSA>
447

> <PUBCHEM_MONOISOTOPIC_WEIGHT>
1084.18401808

> <PUBCHEM_TOTAL_CHARGE>
0

> <PUBCHEM_HEAVY_ATOM_COUNT>
72

> <PUBCHEM_ATOM_DEF_STEREO_COUNT>
0

> <PUBCHEM_ATOM_UDEF_STEREO_COUNT>
5

> <PUBCHEM_BOND_DEF_STEREO_COUNT>
0

> <PUBCHEM_BOND_UDEF_STEREO_COUNT>
0

> <PUBCHEM_ISOTOPIC_ATOM_COUNT>
0

> <PUBCHEM_COMPONENT_COUNT>
1

> <PUBCHEM_CACTVS_TAUTO_COUNT>
-1

> <PUBCHEM_COORDINATE_TYPE>
1
5
255

> <PUBCHEM_BONDANNOTATIONS>
43  16  3
36  25  3
25  38  8
25  39  8
26  39  8
26  40  8
27  38  8
27  45  8
28  42  8
28  45  8
35  37  3
38  40  8
40  42  8
54  55  8
54  58  8
55  56  8
55  60  8
56  61  8
56  64  8
57  65  8
57  66  8
58  63  8
33  6  3
60  67  8
61  63  8
64  68  8
65  69  8
66  70  8
67  68  8
69  71  8
34  7  3
70  71  8

$$$$
155489319
  -OEChem-03012215082D

110114  0     1  0  0  0  0  0999 V2000
   26.0109    1.4680    0.0000 S   0  0  0  0  0  0  0  0  0  0  0  0
   21.4481    2.4931    0.0000 S   0  0  0  0  0  0  0  0  0  0  0  0
    5.3548    2.8947    0.0000 P   0  0  0  0  0  0  0  0  0  0  0  0
    8.4752    1.6549    0.0000 P   0  0  3  0  0  0  0  0  0  0  0  0
   10.1980    1.8330    0.0000 P   0  0  3  0  0  0  0  0  0  0  0  0
    5.9405   -0.1095    0.0000 O   0  0  0  0  0  0  0  0  0  0  0  0
   28.7438    4.4822    0.0000 O   0  0  0  0  0  0  0  0  0  0  0  0
    4.6844    2.1527    0.0000 O   0  0  0  0  0  0  0  0  0  0  0  0
    3.4026    0.3949    0.0000 O   0  0  0  0  0  0  0  0  0  0  0  0
    7.6651    1.0685    0.0000 O   0  0  0  0  0  0  0  0  0  0  0  0
   22.4638    1.0900    0.0000 O   0  0  0  0  0  0  0  0  0  0  0  0
    6.0252    3.6367    0.0000 O   0  0  0  0  0  0  0  0  0  0  0  0
    4.6128    3.5651    0.0000 O   0  0  0  0  0  0  0  0  0  0  0  0
    9.2852    2.2413    0.0000 O   0  0  0  0  0  0  0  0  0  0  0  0
    6.0968    2.2243    0.0000 O   0  0  0  0  0  0  0  0  0  0  0  0
   11.1109    1.4247    0.0000 O   0  0  0  0  0  0  0  0  0  0  0  0
    9.0615    0.8449    0.0000 O   0  0  0  0  0  0  0  0  0  0  0  0
    7.8888    2.4649    0.0000 O   0  0  0  0  0  0  0  0  0  0  0  0
   13.8494    0.1997    0.0000 O   0  0  0  0  0  0  0  0  0  0  0  0
   10.6063    2.7458    0.0000 O   0  0  0  0  0  0  0  0  0  0  0  0
    9.7897    0.9201    0.0000 O   0  0  0  0  0  0  0  0  0  0  0  0
   14.4538    2.7755    0.0000 O   0  0  0  0  0  0  0  0  0  0  0  0
   17.8996    3.1316    0.0000 O   0  0  0  0  0  0  0  0  0  0  0  0
   27.0779    3.8493    0.0000 N   0  0  0  0  0  0  0  0  0  0  0  0
   28.2766    2.7625    0.0000 N   0  0  0  0  0  0  0  0  0  0  0  0
    4.6783   -1.3674    0.0000 N   0  0  0  0  0  0  0  0  0  0  0  0
    4.6783   -2.9769    0.0000 N   0  0  0  0  0  0  0  0  0  0  0  0
    2.8660   -1.1722    0.0000 N   0  0  0  0  0  0  0  0  0  0  0  0
    2.0000   -2.6722    0.0000 N   0  0  0  0  0  0  0  0  0  0  0  0
    2.8660   -4.1722    0.0000 N   0  0  0  0  0  0  0  0  0  0  0  0
   15.4695    1.3725    0.0000 N   0  0  0  0  0  0  0  0  0  0  0  0
   18.9152    1.7286    0.0000 N   0  0  0  0  0  0  0  0  0  0  0  0
   26.6680    2.9372    0.0000 C   0  0  3  0  0  0  0  0  0  0  0  0
   27.4088    2.2655    0.0000 C   0  0  3  0  0  0  0  0  0  0  0  0
   25.8067    2.4409    0.0000 C   0  0  3  0  0  0  0  0  0  0  0  0
   26.9990    1.3598    0.0000 C   0  0  0  0  0  0  0  0  0  0  0  0
   24.8939    2.8492    0.0000 C   0  0  0  0  0  0  0  0  0  0  0  0
   28.0721    3.7413    0.0000 C   0  0  0  0  0  0  0  0  0  0  0  0
   24.0838    2.2628    0.0000 C   0  0  0  0  0  0  0  0  0  0  0  0
    4.9917    1.2011    0.0000 C   0  0  3  0  0  0  0  0  0  0  0  0
    4.4026    0.3931    0.0000 C   0  0  3  0  0  0  0  0  0  0  0  0
    5.9422    0.8905    0.0000 C   0  0  3  0  0  0  0  0  0  0  0  0
    4.9889   -0.4169    0.0000 C   0  0  3  0  0  0  0  0  0  0  0  0
   23.1710    2.6711    0.0000 C   0  0  0  0  0  0  0  0  0  0  0  0
    6.7523    1.4768    0.0000 C   0  0  0  0  0  0  0  0  0  0  0  0
   22.3610    2.0848    0.0000 C   0  0  0  0  0  0  0  0  0  0  0  0
    3.7320   -1.6722    0.0000 C   0  0  0  0  0  0  0  0  0  0  0  0
    5.2619   -2.1722    0.0000 C   0  0  0  0  0  0  0  0  0  0  0  0
    3.7320   -2.6722    0.0000 C   0  0  0  0  0  0  0  0  0  0  0  0
   12.8337    1.6027    0.0000 C   0  0  0  0  0  0  0  0  0  0  0  0
    2.8660   -3.1722    0.0000 C   0  0  0  0  0  0  0  0  0  0  0  0
   13.7466    1.1944    0.0000 C   0  0  3  0  0  0  0  0  0  0  0  0
   11.9209    2.0110    0.0000 C   0  0  0  0  0  0  0  0  0  0  0  0
   20.6381    1.9067    0.0000 C   0  0  0  0  0  0  0  0  0  0  0  0
   13.2421    2.5156    0.0000 C   0  0  0  0  0  0  0  0  0  0  0  0
   12.4254    0.6899    0.0000 C   0  0  0  0  0  0  0  0  0  0  0  0
    2.0000   -1.6722    0.0000 C   0  0  0  0  0  0  0  0  0  0  0  0
   14.5566    1.7808    0.0000 C   0  0  0  0  0  0  0  0  0  0  0  0
   19.7252    2.3150    0.0000 C   0  0  0  0  0  0  0  0  0  0  0  0
   16.2795    1.9589    0.0000 C   0  0  0  0  0  0  0  0  0  0  0  0
   17.1923    1.5506    0.0000 C   0  0  0  0  0  0  0  0  0  0  0  0
   18.0024    2.1369    0.0000 C   0  0  0  0  0  0  0  0  0  0  0  0
   26.2082    3.3530    0.0000 H   0  0  0  0  0  0  0  0  0  0  0  0
   27.8676    1.8484    0.0000 H   0  0  0  0  0  0  0  0  0  0  0  0
   25.3240    2.0518    0.0000 H   0  0  0  0  0  0  0  0  0  0  0  0
   26.8672    0.7540    0.0000 H   0  0  0  0  0  0  0  0  0  0  0  0
   27.5876    1.1650    0.0000 H   0  0  0  0  0  0  0  0  0  0  0  0
   25.2414    3.3626    0.0000 H   0  0  0  0  0  0  0  0  0  0  0  0
   24.4486    3.2807    0.0000 H   0  0  0  0  0  0  0  0  0  0  0  0
   26.7698    4.3873    0.0000 H   0  0  0  0  0  0  0  0  0  0  0  0
   28.8421    2.5083    0.0000 H   0  0  0  0  0  0  0  0  0  0  0  0
   23.7362    1.7494    0.0000 H   0  0  0  0  0  0  0  0  0  0  0  0
   24.5291    1.8314    0.0000 H   0  0  0  0  0  0  0  0  0  0  0  0
    5.4309    1.6388    0.0000 H   0  0  0  0  0  0  0  0  0  0  0  0
    4.1220    0.9460    0.0000 H   0  0  0  0  0  0  0  0  0  0  0  0
    6.4942    0.6080    0.0000 H   0  0  0  0  0  0  0  0  0  0  0  0
    5.4266   -0.8561    0.0000 H   0  0  0  0  0  0  0  0  0  0  0  0
   23.5186    3.1845    0.0000 H   0  0  0  0  0  0  0  0  0  0  0  0
   22.7257    3.1026    0.0000 H   0  0  0  0  0  0  0  0  0  0  0  0
    7.0999    1.9902    0.0000 H   0  0  0  0  0  0  0  0  0  0  0  0
    6.3070    1.9083    0.0000 H   0  0  0  0  0  0  0  0  0  0  0  0
    3.0935    0.9323    0.0000 H   0  0  0  0  0  0  0  0  0  0  0  0
    5.8819   -2.1722    0.0000 H   0  0  0  0  0  0  0  0  0  0  0  0
   13.2444    0.8309    0.0000 H   0  0  0  0  0  0  0  0  0  0  0  0
   12.2685    2.5244    0.0000 H   0  0  0  0  0  0  0  0  0  0  0  0
   11.4757    2.4425    0.0000 H   0  0  0  0  0  0  0  0  0  0  0  0
   20.2905    1.3933    0.0000 H   0  0  0  0  0  0  0  0  0  0  0  0
   21.0833    1.4752    0.0000 H   0  0  0  0  0  0  0  0  0  0  0  0
   13.8080    2.2624    0.0000 H   0  0  0  0  0  0  0  0  0  0  0  0
   13.4952    3.0815    0.0000 H   0  0  0  0  0  0  0  0  0  0  0  0
   12.6761    2.7687    0.0000 H   0  0  0  0  0  0  0  0  0  0  0  0
   11.8595    0.9430    0.0000 H   0  0  0  0  0  0  0  0  0  0  0  0
   12.1723    0.1239    0.0000 H   0  0  0  0  0  0  0  0  0  0  0  0
   12.9914    0.4367    0.0000 H   0  0  0  0  0  0  0  0  0  0  0  0
    5.8346    4.2267    0.0000 H   0  0  0  0  0  0  0  0  0  0  0  0
    4.0228    3.3745    0.0000 H   0  0  0  0  0  0  0  0  0  0  0  0
    1.4631   -1.3622    0.0000 H   0  0  0  0  0  0  0  0  0  0  0  0
   20.0728    2.8284    0.0000 H   0  0  0  0  0  0  0  0  0  0  0  0
   19.2800    2.7465    0.0000 H   0  0  0  0  0  0  0  0  0  0  0  0
    8.8084    0.2789    0.0000 H   0  0  0  0  0  0  0  0  0  0  0  0
    2.3291   -4.4822    0.0000 H   0  0  0  0  0  0  0  0  0  0  0  0
    3.4030   -4.4822    0.0000 H   0  0  0  0  0  0  0  0  0  0  0  0
   14.4154   -0.0534    0.0000 H   0  0  0  0  0  0  0  0  0  0  0  0
   15.5332    0.7558    0.0000 H   0  0  0  0  0  0  0  0  0  0  0  0
   16.6271    2.4723    0.0000 H   0  0  0  0  0  0  0  0  0  0  0  0
   15.8342    2.3903    0.0000 H   0  0  0  0  0  0  0  0  0  0  0  0
   18.9789    1.1119    0.0000 H   0  0  0  0  0  0  0  0  0  0  0  0
   16.8447    1.0371    0.0000 H   0  0  0  0  0  0  0  0  0  0  0  0
   17.6376    1.1191    0.0000 H   0  0  0  0  0  0  0  0  0  0  0  0
   10.2428    3.2480    0.0000 H   0  0  0  0  0  0  0  0  0  0  0  0
  1 35  1  0  0  0  0
  1 36  1  0  0  0  0
  2 46  1  0  0  0  0
  2 54  1  0  0  0  0
  3  8  1  0  0  0  0
  3 12  1  0  0  0  0
  3 13  1  0  0  0  0
  3 15  2  0  0  0  0
  4 10  1  0  0  0  0
  4 14  1  0  0  0  0
  4 17  1  0  0  0  0
  4 18  2  0  0  0  0
  5 14  1  0  0  0  0
  5 16  1  0  0  0  0
  5 20  1  0  0  0  0
  5 21  2  0  0  0  0
  6 42  1  0  0  0  0
  6 43  1  0  0  0  0
  7 38  2  0  0  0  0
  8 40  1  0  0  0  0
  9 41  1  0  0  0  0
  9 82  1  0  0  0  0
 10 45  1  0  0  0  0
 11 46  2  0  0  0  0
 12 95  1  0  0  0  0
 13 96  1  0  0  0  0
 16 53  1  0  0  0  0
 17100  1  0  0  0  0
 19 52  1  0  0  0  0
 19103  1  0  0  0  0
 20110  1  0  0  0  0
 22 58  2  0  0  0  0
 23 62  2  0  0  0  0
 24 33  1  0  0  0  0
 24 38  1  0  0  0  0
 24 70  1  0  0  0  0
 25 34  1  0  0  0  0
 25 38  1  0  0  0  0
 25 71  1  0  0  0  0
 26 43  1  0  0  0  0
 26 47  1  0  0  0  0
 26 48  1  0  0  0  0
 27 48  2  0  0  0  0
 27 49  1  0  0  0  0
 28 47  2  0  0  0  0
 28 57  1  0  0  0  0
 29 51  1  0  0  0  0
 29 57  2  0  0  0  0
 30 51  1  0  0  0  0
 30101  1  0  0  0  0
 30102  1  0  0  0  0
 31 58  1  0  0  0  0
 31 60  1  0  0  0  0
 31104  1  0  0  0  0
 32 59  1  0  0  0  0
 32 62  1  0  0  0  0
 32107  1  0  0  0  0
 33 34  1  0  0  0  0
 33 35  1  0  0  0  0
 33 63  1  0  0  0  0
 34 36  1  0  0  0  0
 34 64  1  0  0  0  0
 35 37  1  0  0  0  0
 35 65  1  0  0  0  0
 36 66  1  0  0  0  0
 36 67  1  0  0  0  0
 37 39  1  0  0  0  0
 37 68  1  0  0  0  0
 37 69  1  0  0  0  0
 39 44  1  0  0  0  0
 39 72  1  0  0  0  0
 39 73  1  0  0  0  0
 40 41  1  0  0  0  0
 40 42  1  0  0  0  0
 40 74  1  0  0  0  0
 41 43  1  0  0  0  0
 41 75  1  0  0  0  0
 42 45  1  0  0  0  0
 42 76  1  0  0  0  0
 43 77  1  0  0  0  0
 44 46  1  0  0  0  0
 44 78  1  0  0  0  0
 44 79  1  0  0  0  0
 45 80  1  0  0  0  0
 45 81  1  0  0  0  0
 47 49  1  0  0  0  0
 48 83  1  0  0  0  0
 49 51  2  0  0  0  0
 50 52  1  0  0  0  0
 50 53  1  0  0  0  0
 50 55  1  0  0  0  0
 50 56  1  0  0  0  0
 52 58  1  0  0  0  0
 52 84  1  0  0  0  0
 53 85  1  0  0  0  0
 53 86  1  0  0  0  0
 54 59  1  0  0  0  0
 54 87  1  0  0  0  0
 54 88  1  0  0  0  0
 55 89  1  0  0  0  0
 55 90  1  0  0  0  0
 55 91  1  0  0  0  0
 56 92  1  0  0  0  0
 56 93  1  0  0  0  0
 56 94  1  0  0  0  0
 57 97  1  0  0  0  0
 59 98  1  0  0  0  0
 59 99  1  0  0  0  0
 60 61  1  0  0  0  0
 60105  1  0  0  0  0
 60106  1  0  0  0  0
 61 62  1  0  0  0  0
 61108  1  0  0  0  0
 61109  1  0  0  0  0
M  END
> <PUBCHEM_COMPOUND_CID>
155489319

> <PUBCHEM_COMPOUND_CANONICALIZED>
1

> <PUBCHEM_CACTVS_COMPLEXITY>
1760

> <PUBCHEM_CACTVS_HBOND_ACCEPTOR>
24

> <PUBCHEM_CACTVS_HBOND_DONOR>
11

> <PUBCHEM_CACTVS_ROTATABLE_BOND>
24

> <PUBCHEM_CACTVS_SUBSKEYS>
AAADcfB7/gNgAAAAAAAAAAAAAAAAAWLEiQAsAAAAAAAWAFgB+AAAHgQQCCAADjzl1waH8L/MFxioQQdxdIKAgC0RELABUKFoVBCDWBpgyEAeRAgPFgLzACH6uIKJAAAAAAAAAAAAAAAAAAAAAAAAAAAAAA==

> <PUBCHEM_IUPAC_OPENEYE_NAME>
S-[2-[3-[[4-[[[5-(6-aminopurin-9-yl)-4-hydroxy-3-phosphonooxy-tetrahydrofuran-2-yl]methoxy-hydroxy-phosphoryl]oxy-hydroxy-phosphoryl]oxy-2-hydroxy-3,3-dimethyl-butanoyl]amino]propanoylamino]ethyl] 4-(2-oxo-1,3,3a,4,6,6a-hexahydrothieno[3,4-d]imidazol-4-yl)butanethioate

> <PUBCHEM_IUPAC_CAS_NAME>
4-(2-oxo-1,3,3a,4,6,6a-hexahydrothieno[3,4-d]imidazol-4-yl)butanethioic acid S-[2-[[3-[[4-[[[5-(6-aminopurin-9-yl)-4-hydroxy-3-phosphonooxy-2-oxolanyl]methoxy-hydroxyphosphoryl]oxy-hydroxyphosphoryl]oxy-2-hydroxy-3,3-dimethyl-1-oxobutyl]amino]-1-oxopropyl]amino]ethyl] ester

> <PUBCHEM_IUPAC_NAME_MARKUP>
<I>S</I>-[2-[3-[[4-[[[5-(6-aminopurin-9-yl)-4-hydroxy-3-phosphonooxyoxolan-2-yl]methoxy-hydroxyphosphoryl]oxy-hydroxyphosphoryl]oxy-2-hydroxy-3,3-dimethylbutanoyl]amino]propanoylamino]ethyl] 4-(2-oxo-1,3,3<I>a</I>,4,6,6<I>a</I>-hexahydrothieno[3,4-d]imidazol-4-yl)butanethioate

> <PUBCHEM_IUPAC_NAME>
S-[2-[3-[[4-[[[5-(6-aminopurin-9-yl)-4-hydroxy-3-phosphonooxyoxolan-2-yl]methoxy-hydroxyphosphoryl]oxy-hydroxyphosphoryl]oxy-2-hydroxy-3,3-dimethylbutanoyl]amino]propanoylamino]ethyl] 4-(2-oxo-1,3,3a,4,6,6a-hexahydrothieno[3,4-d]imidazol-4-yl)butanethioate

> <PUBCHEM_IUPAC_SYSTEMATIC_NAME>
S-[2-[3-[[4-[[[5-(6-aminopurin-9-yl)-4-oxidanyl-3-phosphonooxy-oxolan-2-yl]methoxy-oxidanyl-phosphoryl]oxy-oxidanyl-phosphoryl]oxy-3,3-dimethyl-2-oxidanyl-butanoyl]amino]propanoylamino]ethyl] 4-(2-oxidanylidene-1,3,3a,4,6,6a-hexahydrothieno[3,4-d]imidazol-4-yl)butanethioate

> <PUBCHEM_IUPAC_TRADITIONAL_NAME>
4-(2-keto-1,3,3a,4,6,6a-hexahydrothien[3,4-d]imidazol-4-yl)butanethioic acid S-[2-[3-[[4-[[(5-adenin-9-yl-4-hydroxy-3-phosphonooxy-tetrahydrofuran-2-yl)methoxy-hydroxy-phosphoryl]oxy-hydroxy-phosphoryl]oxy-2-hydroxy-3,3-dimethyl-butanoyl]amino]propanoylamino]ethyl] ester

> <PUBCHEM_IUPAC_INCHI>
InChI=1S/C30H48N9O18P3S2/c1-30(2,24(43)27(44)33-7-6-18(40)32-8-9-61-19(41)5-3-4-17-20-15(11-62-17)37-29(45)38-20)12-54-60(51,52)57-59(49,50)53-10-16-23(56-58(46,47)48)22(42)28(55-16)39-14-36-21-25(31)34-13-35-26(21)39/h13-17,20,22-24,28,42-43H,3-12H2,1-2H3,(H,32,40)(H,33,44)(H,49,50)(H,51,52)(H2,31,34,35)(H2,37,38,45)(H2,46,47,48)

> <PUBCHEM_IUPAC_INCHIKEY>
OIRZKHIQRMKGRW-UHFFFAOYSA-N

> <PUBCHEM_XLOGP3_AA>
-5.5

> <PUBCHEM_EXACT_MASS>
979.17715906

> <PUBCHEM_MOLECULAR_FORMULA>
C30H48N9O18P3S2

> <PUBCHEM_MOLECULAR_WEIGHT>
979.8

> <PUBCHEM_OPENEYE_CAN_SMILES>
CC(C)(COP(=O)(O)OP(=O)(O)OCC1C(C(C(O1)N2C=NC3=C(N=CN=C32)N)O)OP(=O)(O)O)C(C(=O)NCCC(=O)NCCSC(=O)CCCC4C5C(CS4)NC(=O)N5)O

> <PUBCHEM_OPENEYE_ISO_SMILES>
CC(C)(COP(=O)(O)OP(=O)(O)OCC1C(C(C(O1)N2C=NC3=C(N=CN=C32)N)O)OP(=O)(O)O)C(C(=O)NCCC(=O)NCCSC(=O)CCCC4C5C(CS4)NC(=O)N5)O

> <PUBCHEM_CACTVS_TPSA>
455

> <PUBCHEM_MONOISOTOPIC_WEIGHT>
979.17715906

> <PUBCHEM_TOTAL_CHARGE>
0

> <PUBCHEM_HEAVY_ATOM_COUNT>
62

> <PUBCHEM_ATOM_DEF_STEREO_COUNT>
0

> <PUBCHEM_ATOM_UDEF_STEREO_COUNT>
8

> <PUBCHEM_BOND_DEF_STEREO_COUNT>
0

> <PUBCHEM_BOND_UDEF_STEREO_COUNT>
0

> <PUBCHEM_ISOTOPIC_ATOM_COUNT>
0

> <PUBCHEM_COMPONENT_COUNT>
1

> <PUBCHEM_CACTVS_TAUTO_COUNT>
-1

> <PUBCHEM_COORDINATE_TYPE>
1
5
255

> <PUBCHEM_BONDANNOTATIONS>
52  19  3
33  24  3
43  26  3
26  47  8
26  48  8
27  48  8
27  49  8
28  47  8
28  57  8
29  51  8
29  57  8
34  36  3
35  37  3
42  45  3
47  49  8
49  51  8
40  8  3
41  9  3

$$$$
155489332
  -OEChem-03012215082D

151158  0     1  0  0  0  0  0999 V2000
   19.0885   -3.9370    0.0000 S   0  0  0  0  0  0  0  0  0  0  0  0
    6.0423    4.2197    0.0000 P   0  0  0  0  0  0  0  0  0  0  0  0
    9.7537    5.1107    0.0000 P   0  0  3  0  0  0  0  0  0  0  0  0
   11.0429    3.9540    0.0000 P   0  0  3  0  0  0  0  0  0  0  0  0
    7.0777    7.3865    0.0000 O   0  0  0  0  0  0  0  0  0  0  0  0
    6.8503    4.8089    0.0000 O   0  0  0  0  0  0  0  0  0  0  0  0
    4.9643    5.8934    0.0000 O   0  0  0  0  0  0  0  0  0  0  0  0
    8.7752    5.3169    0.0000 O   0  0  0  0  0  0  0  0  0  0  0  0
    5.2343    3.6305    0.0000 O   0  0  0  0  0  0  0  0  0  0  0  0
    6.6315    3.4117    0.0000 O   0  0  0  0  0  0  0  0  0  0  0  0
    5.4531    5.0277    0.0000 O   0  0  0  0  0  0  0  0  0  0  0  0
   10.7322    4.9045    0.0000 O   0  0  0  0  0  0  0  0  0  0  0  0
    9.9599    6.0892    0.0000 O   0  0  0  0  0  0  0  0  0  0  0  0
    9.5475    4.1322    0.0000 O   0  0  0  0  0  0  0  0  0  0  0  0
   11.3535    3.0034    0.0000 O   0  0  0  0  0  0  0  0  0  0  0  0
   12.2855    0.1519    0.0000 O   0  0  0  0  0  0  0  0  0  0  0  0
   10.0924    3.6433    0.0000 O   0  0  0  0  0  0  0  0  0  0  0  0
   11.9934    4.2646    0.0000 O   0  0  0  0  0  0  0  0  0  0  0  0
   14.5997    1.4343    0.0000 O   0  0  0  0  0  0  0  0  0  0  0  0
   17.1781   -0.8792    0.0000 O   0  0  0  0  0  0  0  0  0  0  0  0
   27.6968   -7.8490    0.0000 O   0  0  0  0  0  0  0  0  0  0  0  0
   24.2327   -7.8490    0.0000 O   0  0  0  0  0  0  0  0  0  0  0  0
   18.7314   -5.6318    0.0000 O   0  0  0  0  0  0  0  0  0  0  0  0
   32.9551   -4.8248    0.0000 O   0  0  0  0  0  0  0  0  0  0  0  0
    5.4130    8.0222    0.0000 N   0  0  0  0  0  0  0  0  0  0  0  0
    4.7583    9.4926    0.0000 N   0  0  0  0  0  0  0  0  0  0  0  0
    3.8368    7.1068    0.0000 N   0  0  0  0  0  0  0  0  0  0  0  0
    2.4356    8.1248    0.0000 N   0  0  0  0  0  0  0  0  0  0  0  0
    2.6166    9.8474    0.0000 N   0  0  0  0  0  0  0  0  0  0  0  0
   14.2425   -0.2606    0.0000 N   0  0  0  0  0  0  0  0  0  0  0  0
   16.8209   -2.5740    0.0000 N   0  0  0  0  0  0  0  0  0  0  0  0
   20.6884   -6.0442    0.0000 N   0  0  0  0  0  0  0  0  0  0  0  0
    6.7440    5.8032    0.0000 C   0  0  3  0  0  0  0  0  0  0  0  0
    5.8772    6.3018    0.0000 C   0  0  3  0  0  0  0  0  0  0  0  0
    7.4860    6.4737    0.0000 C   0  0  3  0  0  0  0  0  0  0  0  0
    6.0834    7.2803    0.0000 C   0  0  3  0  0  0  0  0  0  0  0  0
    8.4645    6.2674    0.0000 C   0  0  0  0  0  0  0  0  0  0  0  0
    4.4246    7.9158    0.0000 C   0  0  0  0  0  0  0  0  0  0  0  0
    5.6188    8.9948    0.0000 C   0  0  0  0  0  0  0  0  0  0  0  0
    4.0179    8.8293    0.0000 C   0  0  0  0  0  0  0  0  0  0  0  0
    3.0233    8.9338    0.0000 C   0  0  0  0  0  0  0  0  0  0  0  0
   12.6427    1.8467    0.0000 C   0  0  0  0  0  0  0  0  0  0  0  0
    2.8423    7.2113    0.0000 C   0  0  0  0  0  0  0  0  0  0  0  0
   12.3320    2.7972    0.0000 C   0  0  0  0  0  0  0  0  0  0  0  0
   12.9534    0.8962    0.0000 C   0  0  3  0  0  0  0  0  0  0  0  0
   11.6922    1.5360    0.0000 C   0  0  0  0  0  0  0  0  0  0  0  0
   13.5932    2.1574    0.0000 C   0  0  0  0  0  0  0  0  0  0  0  0
   13.9319    0.6900    0.0000 C   0  0  0  0  0  0  0  0  0  0  0  0
   15.2210   -0.4668    0.0000 C   0  0  0  0  0  0  0  0  0  0  0  0
   15.5317   -1.4173    0.0000 C   0  0  0  0  0  0  0  0  0  0  0  0
   16.5102   -1.6235    0.0000 C   0  0  0  0  0  0  0  0  0  0  0  0
   29.4288   -7.8490    0.0000 C   0  0  0  0  0  0  0  0  0  0  0  0
   30.2948   -7.3490    0.0000 C   0  0  0  0  0  0  0  0  0  0  0  0
   29.4288   -8.8490    0.0000 C   0  0  0  0  0  0  0  0  0  0  0  0
   17.7994   -2.7802    0.0000 C   0  0  0  0  0  0  0  0  0  0  0  0
   30.2948   -6.3490    0.0000 C   0  0  0  0  0  0  0  0  0  0  0  0
   28.5628   -7.3490    0.0000 C   0  0  0  0  0  0  0  0  0  0  0  0
   28.5628   -9.3490    0.0000 C   0  0  0  0  0  0  0  0  0  0  0  0
   31.1888   -7.8836    0.0000 C   0  0  0  0  0  0  0  0  0  0  0  0
   29.4288   -5.8490    0.0000 C   0  0  0  0  0  0  0  0  0  0  0  0
   28.5628   -6.3490    0.0000 C   0  0  0  0  0  0  0  0  0  0  0  0
   18.1100   -3.7308    0.0000 C   0  0  0  0  0  0  0  0  0  0  0  0
   31.1888   -5.8143    0.0000 C   0  0  0  0  0  0  0  0  0  0  0  0
   21.6346   -6.3490    0.0000 C   0  0  0  0  0  0  0  0  0  0  0  0
   32.0949   -6.3282    0.0000 C   0  0  0  0  0  0  0  0  0  0  0  0
   26.8307   -7.3490    0.0000 C   0  0  0  0  0  0  0  0  0  0  0  0
   21.6346   -7.3490    0.0000 C   0  0  0  0  0  0  0  0  0  0  0  0
   32.0949   -7.3698    0.0000 C   0  0  0  0  0  0  0  0  0  0  0  0
   25.9647   -7.8490    0.0000 C   0  0  0  0  0  0  0  0  0  0  0  0
   20.3777   -5.0937    0.0000 C   0  0  0  0  0  0  0  0  0  0  0  0
   28.5628  -10.3490    0.0000 C   0  0  0  0  0  0  0  0  0  0  0  0
   25.0987   -7.3490    0.0000 C   0  0  0  0  0  0  0  0  0  0  0  0
   20.1048   -6.8490    0.0000 C   0  0  0  0  0  0  0  0  0  0  0  0
   20.6884   -7.6537    0.0000 C   0  0  0  0  0  0  0  0  0  0  0  0
   23.3666   -7.3490    0.0000 C   0  0  0  0  0  0  0  0  0  0  0  0
   22.5006   -7.8490    0.0000 C   0  0  0  0  0  0  0  0  0  0  0  0
   22.5006   -5.8490    0.0000 C   0  0  0  0  0  0  0  0  0  0  0  0
   19.3992   -4.8875    0.0000 C   0  0  0  0  0  0  0  0  0  0  0  0
   32.9590   -5.8248    0.0000 C   0  0  0  0  0  0  0  0  0  0  0  0
   23.3666   -6.3490    0.0000 C   0  0  0  0  0  0  0  0  0  0  0  0
   33.8269   -6.3215    0.0000 C   0  0  0  0  0  0  0  0  0  0  0  0
   34.6910   -5.8182    0.0000 C   0  0  0  0  0  0  0  0  0  0  0  0
   33.8307   -7.3215    0.0000 C   0  0  0  0  0  0  0  0  0  0  0  0
   35.5589   -6.3148    0.0000 C   0  0  0  0  0  0  0  0  0  0  0  0
   34.6987   -7.8181    0.0000 C   0  0  0  0  0  0  0  0  0  0  0  0
   35.5628   -7.3148    0.0000 C   0  0  0  0  0  0  0  0  0  0  0  0
    7.3232    5.5821    0.0000 H   0  0  0  0  0  0  0  0  0  0  0  0
    5.3947    6.6911    0.0000 H   0  0  0  0  0  0  0  0  0  0  0  0
    7.8754    6.9562    0.0000 H   0  0  0  0  0  0  0  0  0  0  0  0
    5.4848    7.1188    0.0000 H   0  0  0  0  0  0  0  0  0  0  0  0
    9.0784    6.3548    0.0000 H   0  0  0  0  0  0  0  0  0  0  0  0
    8.4851    6.8871    0.0000 H   0  0  0  0  0  0  0  0  0  0  0  0
    4.9006    5.2767    0.0000 H   0  0  0  0  0  0  0  0  0  0  0  0
    6.1852    9.2470    0.0000 H   0  0  0  0  0  0  0  0  0  0  0  0
    5.3002    3.0140    0.0000 H   0  0  0  0  0  0  0  0  0  0  0  0
    6.3803    2.8449    0.0000 H   0  0  0  0  0  0  0  0  0  0  0  0
    2.4779    6.7097    0.0000 H   0  0  0  0  0  0  0  0  0  0  0  0
   12.9459    2.8846    0.0000 H   0  0  0  0  0  0  0  0  0  0  0  0
   12.3526    3.4169    0.0000 H   0  0  0  0  0  0  0  0  0  0  0  0
   12.3467    1.0240    0.0000 H   0  0  0  0  0  0  0  0  0  0  0  0
    2.0000    9.9122    0.0000 H   0  0  0  0  0  0  0  0  0  0  0  0
    2.9810   10.3490    0.0000 H   0  0  0  0  0  0  0  0  0  0  0  0
   11.4996    2.1254    0.0000 H   0  0  0  0  0  0  0  0  0  0  0  0
   11.1029    1.3434    0.0000 H   0  0  0  0  0  0  0  0  0  0  0  0
   11.8848    0.9467    0.0000 H   0  0  0  0  0  0  0  0  0  0  0  0
   13.7858    1.5680    0.0000 H   0  0  0  0  0  0  0  0  0  0  0  0
   14.1825    2.3500    0.0000 H   0  0  0  0  0  0  0  0  0  0  0  0
   13.4006    2.7467    0.0000 H   0  0  0  0  0  0  0  0  0  0  0  0
   10.5492    6.2818    0.0000 H   0  0  0  0  0  0  0  0  0  0  0  0
   11.6788    0.2797    0.0000 H   0  0  0  0  0  0  0  0  0  0  0  0
   13.8285   -0.7220    0.0000 H   0  0  0  0  0  0  0  0  0  0  0  0
    9.9645    3.0366    0.0000 H   0  0  0  0  0  0  0  0  0  0  0  0
   15.8349   -0.3794    0.0000 H   0  0  0  0  0  0  0  0  0  0  0  0
   15.2416    0.1529    0.0000 H   0  0  0  0  0  0  0  0  0  0  0  0
   14.9179   -1.5046    0.0000 H   0  0  0  0  0  0  0  0  0  0  0  0
   15.5111   -2.0370    0.0000 H   0  0  0  0  0  0  0  0  0  0  0  0
   16.4068   -3.0355    0.0000 H   0  0  0  0  0  0  0  0  0  0  0  0
   29.6409   -9.4316    0.0000 H   0  0  0  0  0  0  0  0  0  0  0  0
   30.0394   -8.7413    0.0000 H   0  0  0  0  0  0  0  0  0  0  0  0
   18.4132   -2.6929    0.0000 H   0  0  0  0  0  0  0  0  0  0  0  0
   17.8199   -2.1606    0.0000 H   0  0  0  0  0  0  0  0  0  0  0  0
   28.3507   -8.7664    0.0000 H   0  0  0  0  0  0  0  0  0  0  0  0
   27.9522   -9.4566    0.0000 H   0  0  0  0  0  0  0  0  0  0  0  0
   31.1816   -8.5036    0.0000 H   0  0  0  0  0  0  0  0  0  0  0  0
   29.4288   -5.2290    0.0000 H   0  0  0  0  0  0  0  0  0  0  0  0
   28.0259   -6.0390    0.0000 H   0  0  0  0  0  0  0  0  0  0  0  0
   17.4962   -3.8181    0.0000 H   0  0  0  0  0  0  0  0  0  0  0  0
   18.0895   -4.3504    0.0000 H   0  0  0  0  0  0  0  0  0  0  0  0
   31.1816   -5.1944    0.0000 H   0  0  0  0  0  0  0  0  0  0  0  0
   27.2293   -6.8740    0.0000 H   0  0  0  0  0  0  0  0  0  0  0  0
   26.4322   -6.8740    0.0000 H   0  0  0  0  0  0  0  0  0  0  0  0
   32.6306   -7.6819    0.0000 H   0  0  0  0  0  0  0  0  0  0  0  0
   25.5662   -8.3239    0.0000 H   0  0  0  0  0  0  0  0  0  0  0  0
   26.3633   -8.3239    0.0000 H   0  0  0  0  0  0  0  0  0  0  0  0
   20.9915   -5.0064    0.0000 H   0  0  0  0  0  0  0  0  0  0  0  0
   20.3983   -4.4741    0.0000 H   0  0  0  0  0  0  0  0  0  0  0  0
   27.9428  -10.3490    0.0000 H   0  0  0  0  0  0  0  0  0  0  0  0
   28.5628  -10.9690    0.0000 H   0  0  0  0  0  0  0  0  0  0  0  0
   29.1828  -10.3490    0.0000 H   0  0  0  0  0  0  0  0  0  0  0  0
   25.4972   -6.8740    0.0000 H   0  0  0  0  0  0  0  0  0  0  0  0
   24.7002   -6.8740    0.0000 H   0  0  0  0  0  0  0  0  0  0  0  0
   19.4848   -6.8490    0.0000 H   0  0  0  0  0  0  0  0  0  0  0  0
   20.4958   -8.2430    0.0000 H   0  0  0  0  0  0  0  0  0  0  0  0
   22.5006   -8.4690    0.0000 H   0  0  0  0  0  0  0  0  0  0  0  0
   22.5006   -5.2290    0.0000 H   0  0  0  0  0  0  0  0  0  0  0  0
   23.9036   -6.0390    0.0000 H   0  0  0  0  0  0  0  0  0  0  0  0
   34.6886   -5.1982    0.0000 H   0  0  0  0  0  0  0  0  0  0  0  0
   33.2950   -7.6336    0.0000 H   0  0  0  0  0  0  0  0  0  0  0  0
   36.0947   -6.0027    0.0000 H   0  0  0  0  0  0  0  0  0  0  0  0
   34.7011   -8.4381    0.0000 H   0  0  0  0  0  0  0  0  0  0  0  0
   36.1009   -7.6227    0.0000 H   0  0  0  0  0  0  0  0  0  0  0  0
  1 62  1  0  0  0  0
  1 78  1  0  0  0  0
  2  6  1  0  0  0  0
  2  9  1  0  0  0  0
  2 10  1  0  0  0  0
  2 11  2  0  0  0  0
  3  8  1  0  0  0  0
  3 12  1  0  0  0  0
  3 13  1  0  0  0  0
  3 14  2  0  0  0  0
  4 12  1  0  0  0  0
  4 15  1  0  0  0  0
  4 17  1  0  0  0  0
  4 18  2  0  0  0  0
  5 35  1  0  0  0  0
  5 36  1  0  0  0  0
  6 33  1  0  0  0  0
  7 34  1  0  0  0  0
  7 93  1  0  0  0  0
  8 37  1  0  0  0  0
  9 95  1  0  0  0  0
 10 96  1  0  0  0  0
 13109  1  0  0  0  0
 15 44  1  0  0  0  0
 16 45  1  0  0  0  0
 16110  1  0  0  0  0
 17112  1  0  0  0  0
 19 48  2  0  0  0  0
 20 51  2  0  0  0  0
 21 57  1  0  0  0  0
 21 66  1  0  0  0  0
 22 72  1  0  0  0  0
 22 75  1  0  0  0  0
 23 78  2  0  0  0  0
 24 79  2  0  0  0  0
 25 36  1  0  0  0  0
 25 38  1  0  0  0  0
 25 39  1  0  0  0  0
 26 39  2  0  0  0  0
 26 40  1  0  0  0  0
 27 38  2  0  0  0  0
 27 43  1  0  0  0  0
 28 41  1  0  0  0  0
 28 43  2  0  0  0  0
 29 41  1  0  0  0  0
 29101  1  0  0  0  0
 29102  1  0  0  0  0
 30 48  1  0  0  0  0
 30 49  1  0  0  0  0
 30111  1  0  0  0  0
 31 51  1  0  0  0  0
 31 55  1  0  0  0  0
 31117  1  0  0  0  0
 32 64  1  0  0  0  0
 32 70  1  0  0  0  0
 32 73  1  0  0  0  0
 33 34  1  0  0  0  0
 33 35  1  0  0  0  0
 33 87  1  0  0  0  0
 34 36  1  0  0  0  0
 34 88  1  0  0  0  0
 35 37  1  0  0  0  0
 35 89  1  0  0  0  0
 36 90  1  0  0  0  0
 37 91  1  0  0  0  0
 37 92  1  0  0  0  0
 38 40  1  0  0  0  0
 39 94  1  0  0  0  0
 40 41  2  0  0  0  0
 42 44  1  0  0  0  0
 42 45  1  0  0  0  0
 42 46  1  0  0  0  0
 42 47  1  0  0  0  0
 43 97  1  0  0  0  0
 44 98  1  0  0  0  0
 44 99  1  0  0  0  0
 45 48  1  0  0  0  0
 45100  1  0  0  0  0
 46103  1  0  0  0  0
 46104  1  0  0  0  0
 46105  1  0  0  0  0
 47106  1  0  0  0  0
 47107  1  0  0  0  0
 47108  1  0  0  0  0
 49 50  1  0  0  0  0
 49113  1  0  0  0  0
 49114  1  0  0  0  0
 50 51  1  0  0  0  0
 50115  1  0  0  0  0
 50116  1  0  0  0  0
 52 53  1  0  0  0  0
 52 54  1  0  0  0  0
 52 57  2  0  0  0  0
 53 56  2  0  0  0  0
 53 59  1  0  0  0  0
 54 58  1  0  0  0  0
 54118  1  0  0  0  0
 54119  1  0  0  0  0
 55 62  1  0  0  0  0
 55120  1  0  0  0  0
 55121  1  0  0  0  0
 56 60  1  0  0  0  0
 56 63  1  0  0  0  0
 57 61  1  0  0  0  0
 58 71  1  0  0  0  0
 58122  1  0  0  0  0
 58123  1  0  0  0  0
 59 68  2  0  0  0  0
 59124  1  0  0  0  0
 60 61  2  0  0  0  0
 60125  1  0  0  0  0
 61126  1  0  0  0  0
 62127  1  0  0  0  0
 62128  1  0  0  0  0
 63 65  2  0  0  0  0
 63129  1  0  0  0  0
 64 67  2  0  0  0  0
 64 77  1  0  0  0  0
 65 68  1  0  0  0  0
 65 79  1  0  0  0  0
 66 69  1  0  0  0  0
 66130  1  0  0  0  0
 66131  1  0  0  0  0
 67 74  1  0  0  0  0
 67 76  1  0  0  0  0
 68132  1  0  0  0  0
 69 72  1  0  0  0  0
 69133  1  0  0  0  0
 69134  1  0  0  0  0
 70 78  1  0  0  0  0
 70135  1  0  0  0  0
 70136  1  0  0  0  0
 71137  1  0  0  0  0
 71138  1  0  0  0  0
 71139  1  0  0  0  0
 72140  1  0  0  0  0
 72141  1  0  0  0  0
 73 74  2  0  0  0  0
 73142  1  0  0  0  0
 74143  1  0  0  0  0
 75 76  2  0  0  0  0
 75 80  1  0  0  0  0
 76144  1  0  0  0  0
 77 80  2  0  0  0  0
 77145  1  0  0  0  0
 79 81  1  0  0  0  0
 80146  1  0  0  0  0
 81 82  2  0  0  0  0
 81 83  1  0  0  0  0
 82 84  1  0  0  0  0
 82147  1  0  0  0  0
 83 85  2  0  0  0  0
 83148  1  0  0  0  0
 84 86  2  0  0  0  0
 84149  1  0  0  0  0
 85 86  1  0  0  0  0
 85150  1  0  0  0  0
 86151  1  0  0  0  0
M  END
> <PUBCHEM_COMPOUND_CID>
155489332

> <PUBCHEM_COMPOUND_CANONICALIZED>
1

> <PUBCHEM_CACTVS_COMPLEXITY>
2400

> <PUBCHEM_CACTVS_HBOND_ACCEPTOR>
25

> <PUBCHEM_CACTVS_HBOND_DONOR>
9

> <PUBCHEM_CACTVS_ROTATABLE_BOND>
32

> <PUBCHEM_CACTVS_SUBSKEYS>
AAADcfB//gNAAAAAAAAAAAAAAAAAAWLEgAA8YMGCAAAAAFjB/gAAHgQQCCAADhzl3wa/9v/MFxioQ7d3dIKCiC01MrAJ2KH+fNiPfvrE/fuefSjv1hP76af6+PKP4EADAAAaAADAgAYAADQAAAAAAAAAAA==

> <PUBCHEM_IUPAC_OPENEYE_NAME>
S-[2-[3-[[4-[[[5-(6-aminopurin-9-yl)-4-hydroxy-3-phosphonooxy-tetrahydrofuran-2-yl]methoxy-hydroxy-phosphoryl]oxy-hydroxy-phosphoryl]oxy-2-hydroxy-3,3-dimethyl-butanoyl]amino]propanoylamino]ethyl] 2-[5-[3-[(6-benzoyl-1-propyl-2-naphthyl)oxy]propoxy]indol-1-yl]ethanethioate

> <PUBCHEM_IUPAC_CAS_NAME>
2-[5-[3-[(6-benzoyl-1-propyl-2-naphthalenyl)oxy]propoxy]-1-indolyl]ethanethioic acid S-[2-[[3-[[4-[[[5-(6-aminopurin-9-yl)-4-hydroxy-3-phosphonooxy-2-oxolanyl]methoxy-hydroxyphosphoryl]oxy-hydroxyphosphoryl]oxy-2-hydroxy-3,3-dimethyl-1-oxobutyl]amino]-1-oxopropyl]amino]ethyl] ester

> <PUBCHEM_IUPAC_NAME_MARKUP>
<I>S</I>-[2-[3-[[4-[[[5-(6-aminopurin-9-yl)-4-hydroxy-3-phosphonooxyoxolan-2-yl]methoxy-hydroxyphosphoryl]oxy-hydroxyphosphoryl]oxy-2-hydroxy-3,3-dimethylbutanoyl]amino]propanoylamino]ethyl] 2-[5-[3-(6-benzoyl-1-propylnaphthalen-2-yl)oxypropoxy]indol-1-yl]ethanethioate

> <PUBCHEM_IUPAC_NAME>
S-[2-[3-[[4-[[[5-(6-aminopurin-9-yl)-4-hydroxy-3-phosphonooxyoxolan-2-yl]methoxy-hydroxyphosphoryl]oxy-hydroxyphosphoryl]oxy-2-hydroxy-3,3-dimethylbutanoyl]amino]propanoylamino]ethyl] 2-[5-[3-(6-benzoyl-1-propylnaphthalen-2-yl)oxypropoxy]indol-1-yl]ethanethioate

> <PUBCHEM_IUPAC_SYSTEMATIC_NAME>
S-[2-[3-[[4-[[[5-(6-aminopurin-9-yl)-4-oxidanyl-3-phosphonooxy-oxolan-2-yl]methoxy-oxidanyl-phosphoryl]oxy-oxidanyl-phosphoryl]oxy-3,3-dimethyl-2-oxidanyl-butanoyl]amino]propanoylamino]ethyl] 2-[5-[3-[6-(phenylcarbonyl)-1-propyl-naphthalen-2-yl]oxypropoxy]indol-1-yl]ethanethioate

> <PUBCHEM_IUPAC_TRADITIONAL_NAME>
2-[5-[3-(6-benzoyl-1-propyl-2-naphthoxy)propoxy]indol-1-yl]ethanethioic acid S-[2-[3-[[4-[[(5-adenin-9-yl-4-hydroxy-3-phosphonooxy-tetrahydrofuran-2-yl)methoxy-hydroxy-phosphoryl]oxy-hydroxy-phosphoryl]oxy-2-hydroxy-3,3-dimethyl-butanoyl]amino]propanoylamino]ethyl] ester

> <PUBCHEM_IUPAC_INCHI>
InChI=1S/C54H65N8O20P3S/c1-4-9-39-38-15-12-36(46(65)33-10-6-5-7-11-33)26-34(38)13-17-41(39)77-24-8-23-76-37-14-16-40-35(27-37)19-22-61(40)28-44(64)86-25-21-56-43(63)18-20-57-52(68)49(67)54(2,3)30-79-85(74,75)82-84(72,73)78-29-42-48(81-83(69,70)71)47(66)53(80-42)62-32-60-45-50(55)58-31-59-51(45)62/h5-7,10-17,19,22,26-27,31-32,42,47-49,53,66-67H,4,8-9,18,20-21,23-25,28-30H2,1-3H3,(H,56,63)(H,57,68)(H,72,73)(H,74,75)(H2,55,58,59)(H2,69,70,71)

> <PUBCHEM_IUPAC_INCHIKEY>
OPCHMMBUJQLAOE-UHFFFAOYSA-N

> <PUBCHEM_XLOGP3_AA>
2.2

> <PUBCHEM_EXACT_MASS>
1270.32486866

> <PUBCHEM_MOLECULAR_FORMULA>
C54H65N8O20P3S

> <PUBCHEM_MOLECULAR_WEIGHT>
1271.1

> <PUBCHEM_OPENEYE_CAN_SMILES>
CCCC1=C(C=CC2=C1C=CC(=C2)C(=O)C3=CC=CC=C3)OCCCOC4=CC5=C(C=C4)N(C=C5)CC(=O)SCCNC(=O)CCNC(=O)C(C(C)(C)COP(=O)(O)OP(=O)(O)OCC6C(C(C(O6)N7C=NC8=C(N=CN=C87)N)O)OP(=O)(O)O)O

> <PUBCHEM_OPENEYE_ISO_SMILES>
CCCC1=C(C=CC2=C1C=CC(=C2)C(=O)C3=CC=CC=C3)OCCCOC4=CC5=C(C=C4)N(C=C5)CC(=O)SCCNC(=O)CCNC(=O)C(C(C)(C)COP(=O)(O)OP(=O)(O)OCC6C(C(C(O6)N7C=NC8=C(N=CN=C87)N)O)OP(=O)(O)O)O

> <PUBCHEM_CACTVS_TPSA>
429

> <PUBCHEM_MONOISOTOPIC_WEIGHT>
1270.32486866

> <PUBCHEM_TOTAL_CHARGE>
0

> <PUBCHEM_HEAVY_ATOM_COUNT>
86

> <PUBCHEM_ATOM_DEF_STEREO_COUNT>
0

> <PUBCHEM_ATOM_UDEF_STEREO_COUNT>
5

> <PUBCHEM_BOND_DEF_STEREO_COUNT>
0

> <PUBCHEM_BOND_UDEF_STEREO_COUNT>
0

> <PUBCHEM_ISOTOPIC_ATOM_COUNT>
0

> <PUBCHEM_COMPONENT_COUNT>
1

> <PUBCHEM_CACTVS_TAUTO_COUNT>
-1

> <PUBCHEM_COORDINATE_TYPE>
1
5
255

> <PUBCHEM_BONDANNOTATIONS>
45  16  3
36  25  3
25  38  8
25  39  8
26  39  8
26  40  8
27  38  8
27  43  8
28  41  8
28  43  8
32  64  8
32  73  8
35  37  3
38  40  8
40  41  8
52  53  8
52  57  8
53  56  8
53  59  8
56  60  8
56  63  8
57  61  8
59  68  8
33  6  3
60  61  8
63  65  8
64  67  8
64  77  8
65  68  8
67  74  8
67  76  8
34  7  3
73  74  8
75  76  8
75  80  8
77  80  8
81  82  8
81  83  8
82  84  8
83  85  8
84  86  8
85  86  8

$$$$
155489338
  -OEChem-03012215082D

136139  0     1  0  0  0  0  0999 V2000
   21.4481    0.9864    0.0000 S   0  0  0  0  0  0  0  0  0  0  0  0
    5.3548    1.3880    0.0000 P   0  0  0  0  0  0  0  0  0  0  0  0
    8.4752    0.1482    0.0000 P   0  0  3  0  0  0  0  0  0  0  0  0
   10.1980    0.3263    0.0000 P   0  0  3  0  0  0  0  0  0  0  0  0
   32.3898    4.6306    0.0000 P   0  0  0  0  0  0  0  0  0  0  0  0
    5.9405   -1.6162    0.0000 O   0  0  0  0  0  0  0  0  0  0  0  0
    4.6844    0.6460    0.0000 O   0  0  0  0  0  0  0  0  0  0  0  0
    3.4026   -1.1118    0.0000 O   0  0  0  0  0  0  0  0  0  0  0  0
    7.6651   -0.4382    0.0000 O   0  0  0  0  0  0  0  0  0  0  0  0
    6.0252    2.1300    0.0000 O   0  0  0  0  0  0  0  0  0  0  0  0
    4.6128    2.0584    0.0000 O   0  0  0  0  0  0  0  0  0  0  0  0
    6.0968    0.7176    0.0000 O   0  0  0  0  0  0  0  0  0  0  0  0
    9.2852    0.7346    0.0000 O   0  0  0  0  0  0  0  0  0  0  0  0
    9.0615   -0.6618    0.0000 O   0  0  0  0  0  0  0  0  0  0  0  0
   11.1109   -0.0820    0.0000 O   0  0  0  0  0  0  0  0  0  0  0  0
    7.8888    0.9583    0.0000 O   0  0  0  0  0  0  0  0  0  0  0  0
   13.8494   -1.3070    0.0000 O   0  0  0  0  0  0  0  0  0  0  0  0
   10.6063    1.2391    0.0000 O   0  0  0  0  0  0  0  0  0  0  0  0
    9.7897   -0.5865    0.0000 O   0  0  0  0  0  0  0  0  0  0  0  0
   14.4538    1.2688    0.0000 O   0  0  0  0  0  0  0  0  0  0  0  0
   27.6324    0.1176    0.0000 O   0  0  0  0  0  0  0  0  0  0  0  0
   17.8996    1.6250    0.0000 O   0  0  0  0  0  0  0  0  0  0  0  0
   30.2681   -0.1127    0.0000 O   0  0  0  0  0  0  0  0  0  0  0  0
   22.4638   -0.4166    0.0000 O   0  0  0  0  0  0  0  0  0  0  0  0
   32.4926    3.6359    0.0000 O   0  0  0  0  0  0  0  0  0  0  0  0
   32.2870    5.6253    0.0000 O   0  0  0  0  0  0  0  0  0  0  0  0
   33.3845    4.7334    0.0000 O   0  0  0  0  0  0  0  0  0  0  0  0
   31.3951    4.5278    0.0000 O   0  0  0  0  0  0  0  0  0  0  0  0
    4.6783   -2.8741    0.0000 N   0  0  0  0  0  0  0  0  0  0  0  0
    4.6783   -4.4836    0.0000 N   0  0  0  0  0  0  0  0  0  0  0  0
    2.8660   -2.6788    0.0000 N   0  0  0  0  0  0  0  0  0  0  0  0
    2.0000   -4.1788    0.0000 N   0  0  0  0  0  0  0  0  0  0  0  0
    2.8660   -5.6788    0.0000 N   0  0  0  0  0  0  0  0  0  0  0  0
   15.4695   -0.1342    0.0000 N   0  0  0  0  0  0  0  0  0  0  0  0
   29.2524    1.2903    0.0000 N   0  0  0  0  0  0  0  0  0  0  0  0
   18.9152    0.2219    0.0000 N   0  0  0  0  0  0  0  0  0  0  0  0
   32.8010    0.6518    0.0000 N   0  0  0  0  0  0  0  0  0  0  0  0
    4.9917   -0.3056    0.0000 C   0  0  3  0  0  0  0  0  0  0  0  0
    4.4026   -1.1136    0.0000 C   0  0  3  0  0  0  0  0  0  0  0  0
    5.9422   -0.6162    0.0000 C   0  0  3  0  0  0  0  0  0  0  0  0
    4.9889   -1.9236    0.0000 C   0  0  3  0  0  0  0  0  0  0  0  0
    6.7523   -0.0298    0.0000 C   0  0  0  0  0  0  0  0  0  0  0  0
    3.7320   -3.1788    0.0000 C   0  0  0  0  0  0  0  0  0  0  0  0
    5.2619   -3.6788    0.0000 C   0  0  0  0  0  0  0  0  0  0  0  0
    3.7320   -4.1788    0.0000 C   0  0  0  0  0  0  0  0  0  0  0  0
    2.8660   -4.6788    0.0000 C   0  0  0  0  0  0  0  0  0  0  0  0
   12.8337    0.0961    0.0000 C   0  0  0  0  0  0  0  0  0  0  0  0
    2.0000   -3.1788    0.0000 C   0  0  0  0  0  0  0  0  0  0  0  0
   11.9209    0.5044    0.0000 C   0  0  0  0  0  0  0  0  0  0  0  0
   13.7466   -0.3123    0.0000 C   0  0  3  0  0  0  0  0  0  0  0  0
   13.2421    1.0089    0.0000 C   0  0  0  0  0  0  0  0  0  0  0  0
   12.4254   -0.8168    0.0000 C   0  0  0  0  0  0  0  0  0  0  0  0
   14.5566    0.2741    0.0000 C   0  0  0  0  0  0  0  0  0  0  0  0
   16.2795    0.4522    0.0000 C   0  0  0  0  0  0  0  0  0  0  0  0
   17.1923    0.0439    0.0000 C   0  0  0  0  0  0  0  0  0  0  0  0
   25.8067    0.9342    0.0000 C   0  0  0  0  0  0  0  0  0  0  0  0
   24.8939    1.3425    0.0000 C   0  0  0  0  0  0  0  0  0  0  0  0
   26.6167    1.5206    0.0000 C   0  0  0  0  0  0  0  0  0  0  0  0
   28.3396    1.6987    0.0000 C   0  0  3  0  0  0  0  0  0  0  0  0
   24.0838    0.7561    0.0000 C   0  0  0  0  0  0  0  0  0  0  0  0
   18.0024    0.6303    0.0000 C   0  0  0  0  0  0  0  0  0  0  0  0
   27.5296    1.1123    0.0000 C   0  0  0  0  0  0  0  0  0  0  0  0
   23.1710    1.1645    0.0000 C   0  0  0  0  0  0  0  0  0  0  0  0
   30.0625    1.8767    0.0000 C   0  0  0  0  0  0  0  0  0  0  0  0
   28.2368    2.6934    0.0000 C   0  0  0  0  0  0  0  0  0  0  0  0
   30.9753    1.4684    0.0000 C   0  0  0  0  0  0  0  0  0  0  0  0
   19.7252    0.8083    0.0000 C   0  0  0  0  0  0  0  0  0  0  0  0
   22.3610    0.5781    0.0000 C   0  0  0  0  0  0  0  0  0  0  0  0
   20.6381    0.4000    0.0000 C   0  0  0  0  0  0  0  0  0  0  0  0
   31.7854    2.0548    0.0000 C   0  0  0  0  0  0  0  0  0  0  0  0
   31.0781    0.4737    0.0000 C   0  0  0  0  0  0  0  0  0  0  0  0
   31.6825    3.0495    0.0000 C   0  0  0  0  0  0  0  0  0  0  0  0
   31.9910    0.0654    0.0000 C   0  0  0  0  0  0  0  0  0  0  0  0
   32.6982    1.6465    0.0000 C   0  0  0  0  0  0  0  0  0  0  0  0
   32.0938   -0.9293    0.0000 C   0  0  0  0  0  0  0  0  0  0  0  0
    5.4309    0.1321    0.0000 H   0  0  0  0  0  0  0  0  0  0  0  0
    4.1201   -1.6655    0.0000 H   0  0  0  0  0  0  0  0  0  0  0  0
    6.4942   -0.8986    0.0000 H   0  0  0  0  0  0  0  0  0  0  0  0
    5.4266   -2.3628    0.0000 H   0  0  0  0  0  0  0  0  0  0  0  0
    7.0999    0.4836    0.0000 H   0  0  0  0  0  0  0  0  0  0  0  0
    6.3070    0.4016    0.0000 H   0  0  0  0  0  0  0  0  0  0  0  0
    3.0935   -0.5744    0.0000 H   0  0  0  0  0  0  0  0  0  0  0  0
    5.8819   -3.6788    0.0000 H   0  0  0  0  0  0  0  0  0  0  0  0
    5.8346    2.7200    0.0000 H   0  0  0  0  0  0  0  0  0  0  0  0
    4.0228    1.8679    0.0000 H   0  0  0  0  0  0  0  0  0  0  0  0
    1.4631   -2.8688    0.0000 H   0  0  0  0  0  0  0  0  0  0  0  0
   12.2685    1.0178    0.0000 H   0  0  0  0  0  0  0  0  0  0  0  0
   11.4757    0.9358    0.0000 H   0  0  0  0  0  0  0  0  0  0  0  0
   13.2444   -0.6758    0.0000 H   0  0  0  0  0  0  0  0  0  0  0  0
   13.8080    0.7557    0.0000 H   0  0  0  0  0  0  0  0  0  0  0  0
   13.4952    1.5748    0.0000 H   0  0  0  0  0  0  0  0  0  0  0  0
   12.6761    1.2620    0.0000 H   0  0  0  0  0  0  0  0  0  0  0  0
   11.8595   -0.5636    0.0000 H   0  0  0  0  0  0  0  0  0  0  0  0
   12.1723   -1.3828    0.0000 H   0  0  0  0  0  0  0  0  0  0  0  0
   12.9914   -1.0700    0.0000 H   0  0  0  0  0  0  0  0  0  0  0  0
    2.3291   -5.9888    0.0000 H   0  0  0  0  0  0  0  0  0  0  0  0
    3.4030   -5.9888    0.0000 H   0  0  0  0  0  0  0  0  0  0  0  0
    8.8084   -1.2278    0.0000 H   0  0  0  0  0  0  0  0  0  0  0  0
   14.4154   -1.5601    0.0000 H   0  0  0  0  0  0  0  0  0  0  0  0
   15.5332   -0.7509    0.0000 H   0  0  0  0  0  0  0  0  0  0  0  0
   10.2428    1.7414    0.0000 H   0  0  0  0  0  0  0  0  0  0  0  0
   16.6271    0.9656    0.0000 H   0  0  0  0  0  0  0  0  0  0  0  0
   15.8342    0.8836    0.0000 H   0  0  0  0  0  0  0  0  0  0  0  0
   16.8447   -0.4695    0.0000 H   0  0  0  0  0  0  0  0  0  0  0  0
   17.6376   -0.3876    0.0000 H   0  0  0  0  0  0  0  0  0  0  0  0
   25.4591    0.4208    0.0000 H   0  0  0  0  0  0  0  0  0  0  0  0
   26.2519    0.5027    0.0000 H   0  0  0  0  0  0  0  0  0  0  0  0
   25.2414    1.8559    0.0000 H   0  0  0  0  0  0  0  0  0  0  0  0
   24.4486    1.7740    0.0000 H   0  0  0  0  0  0  0  0  0  0  0  0
   26.9643    2.0340    0.0000 H   0  0  0  0  0  0  0  0  0  0  0  0
   26.1715    1.9520    0.0000 H   0  0  0  0  0  0  0  0  0  0  0  0
   28.8418    2.0622    0.0000 H   0  0  0  0  0  0  0  0  0  0  0  0
   23.7362    0.2427    0.0000 H   0  0  0  0  0  0  0  0  0  0  0  0
   24.5291    0.3247    0.0000 H   0  0  0  0  0  0  0  0  0  0  0  0
   29.3162    0.6736    0.0000 H   0  0  0  0  0  0  0  0  0  0  0  0
   23.5186    1.6779    0.0000 H   0  0  0  0  0  0  0  0  0  0  0  0
   22.7257    1.5959    0.0000 H   0  0  0  0  0  0  0  0  0  0  0  0
   30.4101    2.3901    0.0000 H   0  0  0  0  0  0  0  0  0  0  0  0
   29.6172    2.3082    0.0000 H   0  0  0  0  0  0  0  0  0  0  0  0
   28.8535    2.7571    0.0000 H   0  0  0  0  0  0  0  0  0  0  0  0
   28.1731    3.3101    0.0000 H   0  0  0  0  0  0  0  0  0  0  0  0
   27.6201    2.6296    0.0000 H   0  0  0  0  0  0  0  0  0  0  0  0
   18.9789   -0.3948    0.0000 H   0  0  0  0  0  0  0  0  0  0  0  0
   20.0728    1.3217    0.0000 H   0  0  0  0  0  0  0  0  0  0  0  0
   19.2800    1.2398    0.0000 H   0  0  0  0  0  0  0  0  0  0  0  0
   20.2905   -0.1134    0.0000 H   0  0  0  0  0  0  0  0  0  0  0  0
   21.0833   -0.0315    0.0000 H   0  0  0  0  0  0  0  0  0  0  0  0
   31.4117    3.6072    0.0000 H   0  0  0  0  0  0  0  0  0  0  0  0
   31.0863    2.8796    0.0000 H   0  0  0  0  0  0  0  0  0  0  0  0
   33.2004    2.0100    0.0000 H   0  0  0  0  0  0  0  0  0  0  0  0
   31.4771   -0.9931    0.0000 H   0  0  0  0  0  0  0  0  0  0  0  0
   32.1575   -1.5460    0.0000 H   0  0  0  0  0  0  0  0  0  0  0  0
   32.7105   -0.8656    0.0000 H   0  0  0  0  0  0  0  0  0  0  0  0
   30.3318   -0.7294    0.0000 H   0  0  0  0  0  0  0  0  0  0  0  0
   32.7892    5.9888    0.0000 H   0  0  0  0  0  0  0  0  0  0  0  0
   33.7480    4.2312    0.0000 H   0  0  0  0  0  0  0  0  0  0  0  0
  1 68  1  0  0  0  0
  1 69  1  0  0  0  0
  2  7  1  0  0  0  0
  2 10  1  0  0  0  0
  2 11  1  0  0  0  0
  2 12  2  0  0  0  0
  3  9  1  0  0  0  0
  3 13  1  0  0  0  0
  3 14  1  0  0  0  0
  3 16  2  0  0  0  0
  4 13  1  0  0  0  0
  4 15  1  0  0  0  0
  4 18  1  0  0  0  0
  4 19  2  0  0  0  0
  5 25  1  0  0  0  0
  5 26  1  0  0  0  0
  5 27  1  0  0  0  0
  5 28  2  0  0  0  0
  6 40  1  0  0  0  0
  6 41  1  0  0  0  0
  7 38  1  0  0  0  0
  8 39  1  0  0  0  0
  8 82  1  0  0  0  0
  9 42  1  0  0  0  0
 10 84  1  0  0  0  0
 11 85  1  0  0  0  0
 14 98  1  0  0  0  0
 15 49  1  0  0  0  0
 17 50  1  0  0  0  0
 17 99  1  0  0  0  0
 18101  1  0  0  0  0
 20 53  2  0  0  0  0
 21 62  2  0  0  0  0
 22 61  2  0  0  0  0
 23 71  1  0  0  0  0
 23134  1  0  0  0  0
 24 68  2  0  0  0  0
 25 72  1  0  0  0  0
 26135  1  0  0  0  0
 27136  1  0  0  0  0
 29 41  1  0  0  0  0
 29 43  1  0  0  0  0
 29 44  1  0  0  0  0
 30 44  2  0  0  0  0
 30 45  1  0  0  0  0
 31 43  2  0  0  0  0
 31 48  1  0  0  0  0
 32 46  1  0  0  0  0
 32 48  2  0  0  0  0
 33 46  1  0  0  0  0
 33 96  1  0  0  0  0
 33 97  1  0  0  0  0
 34 53  1  0  0  0  0
 34 54  1  0  0  0  0
 34100  1  0  0  0  0
 35 59  1  0  0  0  0
 35 64  1  0  0  0  0
 35115  1  0  0  0  0
 36 61  1  0  0  0  0
 36 67  1  0  0  0  0
 36123  1  0  0  0  0
 37 73  2  0  0  0  0
 37 74  1  0  0  0  0
 38 39  1  0  0  0  0
 38 40  1  0  0  0  0
 38 76  1  0  0  0  0
 39 41  1  0  0  0  0
 39 77  1  0  0  0  0
 40 42  1  0  0  0  0
 40 78  1  0  0  0  0
 41 79  1  0  0  0  0
 42 80  1  0  0  0  0
 42 81  1  0  0  0  0
 43 45  1  0  0  0  0
 44 83  1  0  0  0  0
 45 46  2  0  0  0  0
 47 49  1  0  0  0  0
 47 50  1  0  0  0  0
 47 51  1  0  0  0  0
 47 52  1  0  0  0  0
 48 86  1  0  0  0  0
 49 87  1  0  0  0  0
 49 88  1  0  0  0  0
 50 53  1  0  0  0  0
 50 89  1  0  0  0  0
 51 90  1  0  0  0  0
 51 91  1  0  0  0  0
 51 92  1  0  0  0  0
 52 93  1  0  0  0  0
 52 94  1  0  0  0  0
 52 95  1  0  0  0  0
 54 55  1  0  0  0  0
 54102  1  0  0  0  0
 54103  1  0  0  0  0
 55 61  1  0  0  0  0
 55104  1  0  0  0  0
 55105  1  0  0  0  0
 56 57  1  0  0  0  0
 56 58  1  0  0  0  0
 56106  1  0  0  0  0
 56107  1  0  0  0  0
 57 60  1  0  0  0  0
 57108  1  0  0  0  0
 57109  1  0  0  0  0
 58 62  1  0  0  0  0
 58110  1  0  0  0  0
 58111  1  0  0  0  0
 59 62  1  0  0  0  0
 59 65  1  0  0  0  0
 59112  1  0  0  0  0
 60 63  1  0  0  0  0
 60113  1  0  0  0  0
 60114  1  0  0  0  0
 63 68  1  0  0  0  0
 63116  1  0  0  0  0
 63117  1  0  0  0  0
 64 66  1  0  0  0  0
 64118  1  0  0  0  0
 64119  1  0  0  0  0
 65120  1  0  0  0  0
 65121  1  0  0  0  0
 65122  1  0  0  0  0
 66 70  1  0  0  0  0
 66 71  2  0  0  0  0
 67 69  1  0  0  0  0
 67124  1  0  0  0  0
 67125  1  0  0  0  0
 69126  1  0  0  0  0
 69127  1  0  0  0  0
 70 72  1  0  0  0  0
 70 74  2  0  0  0  0
 71 73  1  0  0  0  0
 72128  1  0  0  0  0
 72129  1  0  0  0  0
 73 75  1  0  0  0  0
 74130  1  0  0  0  0
 75131  1  0  0  0  0
 75132  1  0  0  0  0
 75133  1  0  0  0  0
M  END
> <PUBCHEM_COMPOUND_CID>
155489338

> <PUBCHEM_COMPOUND_CANONICALIZED>
1

> <PUBCHEM_CACTVS_COMPLEXITY>
2100

> <PUBCHEM_CACTVS_HBOND_ACCEPTOR>
30

> <PUBCHEM_CACTVS_HBOND_DONOR>
13

> <PUBCHEM_CACTVS_ROTATABLE_BOND>
33

> <PUBCHEM_CACTVS_SUBSKEYS>
AAADcfB//gPAAAAAAAAAAAAAAAAAAWJAAAAsWAAAAAAAAFgB/gAAHgQQCCAADjzl3wav9r/MFxioQ5d3dIaCgC0xcLAB2KH9XJiLfnry2fOedAhv1hP72Cf6+IOPgAAAAAAAAAAAAAAAAAAAAAAAAAAAAA==

> <PUBCHEM_IUPAC_OPENEYE_NAME>
S-[2-[3-[[4-[[[5-(6-aminopurin-9-yl)-4-hydroxy-3-phosphonooxy-tetrahydrofuran-2-yl]methoxy-hydroxy-phosphoryl]oxy-hydroxy-phosphoryl]oxy-2-hydroxy-3,3-dimethyl-butanoyl]amino]propanoylamino]ethyl] 8-[[3-hydroxy-2-methyl-5-(phosphonooxymethyl)-4-pyridyl]methylamino]-7-oxo-nonanethioate

> <PUBCHEM_IUPAC_CAS_NAME>
8-[[3-hydroxy-2-methyl-5-(phosphonooxymethyl)-4-pyridinyl]methylamino]-7-oxononanethioic acid S-[2-[[3-[[4-[[[5-(6-aminopurin-9-yl)-4-hydroxy-3-phosphonooxy-2-oxolanyl]methoxy-hydroxyphosphoryl]oxy-hydroxyphosphoryl]oxy-2-hydroxy-3,3-dimethyl-1-oxobutyl]amino]-1-oxopropyl]amino]ethyl] ester

> <PUBCHEM_IUPAC_NAME_MARKUP>
<I>S</I>-[2-[3-[[4-[[[5-(6-aminopurin-9-yl)-4-hydroxy-3-phosphonooxyoxolan-2-yl]methoxy-hydroxyphosphoryl]oxy-hydroxyphosphoryl]oxy-2-hydroxy-3,3-dimethylbutanoyl]amino]propanoylamino]ethyl] 8-[[3-hydroxy-2-methyl-5-(phosphonooxymethyl)pyridin-4-yl]methylamino]-7-oxononanethioate

> <PUBCHEM_IUPAC_NAME>
S-[2-[3-[[4-[[[5-(6-aminopurin-9-yl)-4-hydroxy-3-phosphonooxyoxolan-2-yl]methoxy-hydroxyphosphoryl]oxy-hydroxyphosphoryl]oxy-2-hydroxy-3,3-dimethylbutanoyl]amino]propanoylamino]ethyl] 8-[[3-hydroxy-2-methyl-5-(phosphonooxymethyl)pyridin-4-yl]methylamino]-7-oxononanethioate

> <PUBCHEM_IUPAC_SYSTEMATIC_NAME>
S-[2-[3-[[4-[[[5-(6-aminopurin-9-yl)-4-oxidanyl-3-phosphonooxy-oxolan-2-yl]methoxy-oxidanyl-phosphoryl]oxy-oxidanyl-phosphoryl]oxy-3,3-dimethyl-2-oxidanyl-butanoyl]amino]propanoylamino]ethyl] 8-[[2-methyl-3-oxidanyl-5-(phosphonooxymethyl)pyridin-4-yl]methylamino]-7-oxidanylidene-nonanethioate

> <PUBCHEM_IUPAC_TRADITIONAL_NAME>
8-[[3-hydroxy-2-methyl-5-(phosphonooxymethyl)-4-pyridyl]methylamino]-7-keto-nonanethioic acid S-[2-[3-[[4-[[(5-adenin-9-yl-4-hydroxy-3-phosphonooxy-tetrahydrofuran-2-yl)methoxy-hydroxy-phosphoryl]oxy-hydroxy-phosphoryl]oxy-2-hydroxy-3,3-dimethyl-butanoyl]amino]propanoylamino]ethyl] ester

> <PUBCHEM_IUPAC_INCHI>
InChI=1S/C38H61N9O23P4S/c1-21(43-15-24-23(16-65-71(55,56)57)14-42-22(2)30(24)51)25(48)8-6-5-7-9-28(50)75-13-12-40-27(49)10-11-41-36(54)33(53)38(3,4)18-67-74(63,64)70-73(61,62)66-17-26-32(69-72(58,59)60)31(52)37(68-26)47-20-46-29-34(39)44-19-45-35(29)47/h14,19-21,26,31-33,37,43,51-53H,5-13,15-18H2,1-4H3,(H,40,49)(H,41,54)(H,61,62)(H,63,64)(H2,39,44,45)(H2,55,56,57)(H2,58,59,60)

> <PUBCHEM_IUPAC_INCHIKEY>
OUBWLMMSFMMLID-UHFFFAOYSA-N

> <PUBCHEM_XLOGP3_AA>
-8

> <PUBCHEM_EXACT_MASS>
1167.25514839

> <PUBCHEM_MOLECULAR_FORMULA>
C38H61N9O23P4S

> <PUBCHEM_MOLECULAR_WEIGHT>
1167.9

> <PUBCHEM_OPENEYE_CAN_SMILES>
CC1=NC=C(C(=C1O)CNC(C)C(=O)CCCCCC(=O)SCCNC(=O)CCNC(=O)C(C(C)(C)COP(=O)(O)OP(=O)(O)OCC2C(C(C(O2)N3C=NC4=C(N=CN=C43)N)O)OP(=O)(O)O)O)COP(=O)(O)O

> <PUBCHEM_OPENEYE_ISO_SMILES>
CC1=NC=C(C(=C1O)CNC(C)C(=O)CCCCCC(=O)SCCNC(=O)CCNC(=O)C(C(C)(C)COP(=O)(O)OP(=O)(O)OCC2C(C(C(O2)N3C=NC4=C(N=CN=C43)N)O)OP(=O)(O)O)O)COP(=O)(O)O

> <PUBCHEM_CACTVS_TPSA>
518

> <PUBCHEM_MONOISOTOPIC_WEIGHT>
1167.25514839

> <PUBCHEM_TOTAL_CHARGE>
0

> <PUBCHEM_HEAVY_ATOM_COUNT>
75

> <PUBCHEM_ATOM_DEF_STEREO_COUNT>
0

> <PUBCHEM_ATOM_UDEF_STEREO_COUNT>
6

> <PUBCHEM_BOND_DEF_STEREO_COUNT>
0

> <PUBCHEM_BOND_UDEF_STEREO_COUNT>
0

> <PUBCHEM_ISOTOPIC_ATOM_COUNT>
0

> <PUBCHEM_COMPONENT_COUNT>
1

> <PUBCHEM_CACTVS_TAUTO_COUNT>
-1

> <PUBCHEM_COORDINATE_TYPE>
1
5
255

> <PUBCHEM_BONDANNOTATIONS>
50  17  3
41  29  3
29  43  8
29  44  8
30  44  8
30  45  8
31  43  8
31  48  8
32  46  8
32  48  8
37  73  8
37  74  8
40  42  3
43  45  8
45  46  8
59  65  3
66  70  8
66  71  8
38  7  3
70  74  8
71  73  8
39  8  3

$$$$
155489348
  -OEChem-03012215082D

109113  0     1  0  0  0  0  0999 V2000
    5.2152    3.8455    0.0000 S   0  0  0  0  0  0  0  0  0  0  0  0
    8.7988    2.9181    0.0000 S   0  0  0  0  0  0  0  0  0  0  0  0
   23.2467   -2.3729    0.0000 P   0  0  0  0  0  0  0  0  0  0  0  0
   19.7988   -4.0100    0.0000 P   0  0  3  0  0  0  0  0  0  0  0  0
   18.2988   -3.1440    0.0000 P   0  0  3  0  0  0  0  0  0  0  0  0
   22.8866   -5.6851    0.0000 O   0  0  0  0  0  0  0  0  0  0  0  0
   22.5776   -3.1160    0.0000 O   0  0  0  0  0  0  0  0  0  0  0  0
   24.6467   -3.7883    0.0000 O   0  0  0  0  0  0  0  0  0  0  0  0
   20.7988   -4.0100    0.0000 O   0  0  0  0  0  0  0  0  0  0  0  0
   23.9158   -1.6297    0.0000 O   0  0  0  0  0  0  0  0  0  0  0  0
   22.5036   -1.7037    0.0000 O   0  0  0  0  0  0  0  0  0  0  0  0
   18.7988   -4.0100    0.0000 O   0  0  0  0  0  0  0  0  0  0  0  0
   23.9899   -3.0420    0.0000 O   0  0  0  0  0  0  0  0  0  0  0  0
   17.7988   -2.2780    0.0000 O   0  0  0  0  0  0  0  0  0  0  0  0
   19.7988   -5.0100    0.0000 O   0  0  0  0  0  0  0  0  0  0  0  0
   19.7988   -3.0100    0.0000 O   0  0  0  0  0  0  0  0  0  0  0  0
   16.2988    0.3201    0.0000 O   0  0  0  0  0  0  0  0  0  0  0  0
   19.1648   -2.6440    0.0000 O   0  0  0  0  0  0  0  0  0  0  0  0
   17.4328   -3.6440    0.0000 O   0  0  0  0  0  0  0  0  0  0  0  0
   14.2988   -1.4120    0.0000 O   0  0  0  0  0  0  0  0  0  0  0  0
    4.8580    7.1498    0.0000 O   0  0  0  0  0  0  0  0  0  0  0  0
    6.5044    6.6117    0.0000 O   0  0  0  0  0  0  0  0  0  0  0  0
   11.2988    0.3201    0.0000 O   0  0  0  0  0  0  0  0  0  0  0  0
    6.7988    2.9181    0.0000 O   0  0  0  0  0  0  0  0  0  0  0  0
    8.7988    4.6502    0.0000 O   0  0  0  0  0  0  0  0  0  0  0  0
   24.6467   -5.9639    0.0000 N   0  0  0  0  0  0  0  0  0  0  0  0
   25.5904   -7.2676    0.0000 N   0  0  0  0  0  0  0  0  0  0  0  0
   26.0002   -4.7430    0.0000 N   0  0  0  0  0  0  0  0  0  0  0  0
   27.5812   -5.4502    0.0000 N   0  0  0  0  0  0  0  0  0  0  0  0
   27.7593   -7.1731    0.0000 N   0  0  0  0  0  0  0  0  0  0  0  0
   14.2988    0.3201    0.0000 N   0  0  0  0  0  0  0  0  0  0  0  0
    2.5369    4.1502    0.0000 N   0  0  0  0  0  0  0  0  0  0  0  0
    6.7988    4.6502    0.0000 N   0  0  0  0  0  0  0  0  0  0  0  0
   11.2988    2.0521    0.0000 N   0  0  0  0  0  0  0  0  0  0  0  0
   22.8866   -4.0671    0.0000 C   0  0  3  0  0  0  0  0  0  0  0  0
   23.8377   -4.3761    0.0000 C   0  0  3  0  0  0  0  0  0  0  0  0
   22.2988   -4.8761    0.0000 C   0  0  3  0  0  0  0  0  0  0  0  0
   23.8377   -5.3761    0.0000 C   0  0  3  0  0  0  0  0  0  0  0  0
   21.2988   -4.8761    0.0000 C   0  0  0  0  0  0  0  0  0  0  0  0
   25.5918   -5.6559    0.0000 C   0  0  0  0  0  0  0  0  0  0  0  0
   24.6458   -6.9579    0.0000 C   0  0  0  0  0  0  0  0  0  0  0  0
   26.1782   -6.4659    0.0000 C   0  0  0  0  0  0  0  0  0  0  0  0
   16.2988   -1.4120    0.0000 C   0  0  0  0  0  0  0  0  0  0  0  0
   27.1729   -6.3631    0.0000 C   0  0  0  0  0  0  0  0  0  0  0  0
   15.7988   -0.5460    0.0000 C   0  0  3  0  0  0  0  0  0  0  0  0
   16.7988   -2.2780    0.0000 C   0  0  0  0  0  0  0  0  0  0  0  0
   17.1648   -0.9120    0.0000 C   0  0  0  0  0  0  0  0  0  0  0  0
   15.4328   -1.9120    0.0000 C   0  0  0  0  0  0  0  0  0  0  0  0
   26.9949   -4.6402    0.0000 C   0  0  0  0  0  0  0  0  0  0  0  0
   14.7988   -0.5460    0.0000 C   0  0  0  0  0  0  0  0  0  0  0  0
    4.2690    5.1502    0.0000 C   0  0  0  0  0  0  0  0  0  0  0  0
    3.4030    5.6502    0.0000 C   0  0  0  0  0  0  0  0  0  0  0  0
    4.2690    4.1502    0.0000 C   0  0  0  0  0  0  0  0  0  0  0  0
    2.5369    5.1502    0.0000 C   0  0  0  0  0  0  0  0  0  0  0  0
   13.2988    0.3201    0.0000 C   0  0  0  0  0  0  0  0  0  0  0  0
    3.4030    3.6502    0.0000 C   0  0  0  0  0  0  0  0  0  0  0  0
    5.2152    5.4549    0.0000 C   0  0  0  0  0  0  0  0  0  0  0  0
   12.7988    1.1861    0.0000 C   0  0  0  0  0  0  0  0  0  0  0  0
    5.7988    4.6502    0.0000 C   0  0  0  0  0  0  0  0  0  0  0  0
    5.5259    6.4054    0.0000 C   0  0  0  0  0  0  0  0  0  0  0  0
   11.7988    1.1861    0.0000 C   0  0  0  0  0  0  0  0  0  0  0  0
    7.2988    3.7842    0.0000 C   0  0  0  0  0  0  0  0  0  0  0  0
   10.2988    2.0521    0.0000 C   0  0  0  0  0  0  0  0  0  0  0  0
    9.7988    2.9181    0.0000 C   0  0  0  0  0  0  0  0  0  0  0  0
    8.2988    3.7842    0.0000 C   0  0  0  0  0  0  0  0  0  0  0  0
   23.3250   -3.6287    0.0000 H   0  0  0  0  0  0  0  0  0  0  0  0
   24.3901   -4.6575    0.0000 H   0  0  0  0  0  0  0  0  0  0  0  0
   22.0173   -5.4285    0.0000 H   0  0  0  0  0  0  0  0  0  0  0  0
   23.7407   -5.9884    0.0000 H   0  0  0  0  0  0  0  0  0  0  0  0
   20.7162   -5.0881    0.0000 H   0  0  0  0  0  0  0  0  0  0  0  0
   21.4065   -5.4867    0.0000 H   0  0  0  0  0  0  0  0  0  0  0  0
   24.5819   -3.1717    0.0000 H   0  0  0  0  0  0  0  0  0  0  0  0
   24.1436   -7.3215    0.0000 H   0  0  0  0  0  0  0  0  0  0  0  0
   16.4188   -0.5460    0.0000 H   0  0  0  0  0  0  0  0  0  0  0  0
   16.2162   -2.4900    0.0000 H   0  0  0  0  0  0  0  0  0  0  0  0
   16.9065   -2.8886    0.0000 H   0  0  0  0  0  0  0  0  0  0  0  0
   17.4748   -1.4489    0.0000 H   0  0  0  0  0  0  0  0  0  0  0  0
   17.7018   -0.6020    0.0000 H   0  0  0  0  0  0  0  0  0  0  0  0
   16.8548   -0.3750    0.0000 H   0  0  0  0  0  0  0  0  0  0  0  0
   15.1228   -1.3750    0.0000 H   0  0  0  0  0  0  0  0  0  0  0  0
   14.8959   -2.2220    0.0000 H   0  0  0  0  0  0  0  0  0  0  0  0
   15.7428   -2.4489    0.0000 H   0  0  0  0  0  0  0  0  0  0  0  0
   23.7243   -1.0401    0.0000 H   0  0  0  0  0  0  0  0  0  0  0  0
   22.6325   -1.0973    0.0000 H   0  0  0  0  0  0  0  0  0  0  0  0
   27.2480   -4.0742    0.0000 H   0  0  0  0  0  0  0  0  0  0  0  0
   19.2619   -5.3200    0.0000 H   0  0  0  0  0  0  0  0  0  0  0  0
   28.3760   -7.1094    0.0000 H   0  0  0  0  0  0  0  0  0  0  0  0
   27.5061   -7.7391    0.0000 H   0  0  0  0  0  0  0  0  0  0  0  0
   16.9188    0.3201    0.0000 H   0  0  0  0  0  0  0  0  0  0  0  0
   14.6088    0.8570    0.0000 H   0  0  0  0  0  0  0  0  0  0  0  0
    3.8015    6.1252    0.0000 H   0  0  0  0  0  0  0  0  0  0  0  0
    3.0044    6.1252    0.0000 H   0  0  0  0  0  0  0  0  0  0  0  0
    2.3249    5.7328    0.0000 H   0  0  0  0  0  0  0  0  0  0  0  0
    1.9264    5.0425    0.0000 H   0  0  0  0  0  0  0  0  0  0  0  0
   12.7162    0.1080    0.0000 H   0  0  0  0  0  0  0  0  0  0  0  0
   13.4065   -0.2905    0.0000 H   0  0  0  0  0  0  0  0  0  0  0  0
    3.0044    3.1752    0.0000 H   0  0  0  0  0  0  0  0  0  0  0  0
    3.8015    3.1752    0.0000 H   0  0  0  0  0  0  0  0  0  0  0  0
   19.1648   -2.0240    0.0000 H   0  0  0  0  0  0  0  0  0  0  0  0
    2.0000    3.8402    0.0000 H   0  0  0  0  0  0  0  0  0  0  0  0
   13.3814    1.3982    0.0000 H   0  0  0  0  0  0  0  0  0  0  0  0
   12.6912    1.7967    0.0000 H   0  0  0  0  0  0  0  0  0  0  0  0
    7.1088    5.1871    0.0000 H   0  0  0  0  0  0  0  0  0  0  0  0
   11.6088    2.5891    0.0000 H   0  0  0  0  0  0  0  0  0  0  0  0
    9.7162    1.8401    0.0000 H   0  0  0  0  0  0  0  0  0  0  0  0
   10.4065    1.4415    0.0000 H   0  0  0  0  0  0  0  0  0  0  0  0
   10.3814    3.1302    0.0000 H   0  0  0  0  0  0  0  0  0  0  0  0
    9.6912    3.5287    0.0000 H   0  0  0  0  0  0  0  0  0  0  0  0
    5.0506    7.7391    0.0000 H   0  0  0  0  0  0  0  0  0  0  0  0
  1 53  1  0  0  0  0
  1 59  1  0  0  0  0
  2 64  1  0  0  0  0
  2 65  1  0  0  0  0
  3  7  1  0  0  0  0
  3 10  1  0  0  0  0
  3 11  1  0  0  0  0
  3 13  2  0  0  0  0
  4  9  1  0  0  0  0
  4 12  1  0  0  0  0
  4 15  1  0  0  0  0
  4 16  2  0  0  0  0
  5 12  1  0  0  0  0
  5 14  1  0  0  0  0
  5 18  1  0  0  0  0
  5 19  2  0  0  0  0
  6 37  1  0  0  0  0
  6 38  1  0  0  0  0
  7 35  1  0  0  0  0
  8 36  1  0  0  0  0
  8 72  1  0  0  0  0
  9 39  1  0  0  0  0
 10 83  1  0  0  0  0
 11 84  1  0  0  0  0
 14 46  1  0  0  0  0
 15 86  1  0  0  0  0
 17 45  1  0  0  0  0
 17 89  1  0  0  0  0
 18 99  1  0  0  0  0
 20 50  2  0  0  0  0
 21 60  1  0  0  0  0
 21109  1  0  0  0  0
 22 60  2  0  0  0  0
 23 61  2  0  0  0  0
 24 62  2  0  0  0  0
 25 65  2  0  0  0  0
 26 38  1  0  0  0  0
 26 40  1  0  0  0  0
 26 41  1  0  0  0  0
 27 41  2  0  0  0  0
 27 42  1  0  0  0  0
 28 40  2  0  0  0  0
 28 49  1  0  0  0  0
 29 44  1  0  0  0  0
 29 49  2  0  0  0  0
 30 44  1  0  0  0  0
 30 87  1  0  0  0  0
 30 88  1  0  0  0  0
 31 50  1  0  0  0  0
 31 55  1  0  0  0  0
 31 90  1  0  0  0  0
 32 54  1  0  0  0  0
 32 56  1  0  0  0  0
 32100  1  0  0  0  0
 33 59  1  0  0  0  0
 33 62  1  0  0  0  0
 33103  1  0  0  0  0
 34 61  1  0  0  0  0
 34 63  1  0  0  0  0
 34104  1  0  0  0  0
 35 36  1  0  0  0  0
 35 37  1  0  0  0  0
 35 66  1  0  0  0  0
 36 38  1  0  0  0  0
 36 67  1  0  0  0  0
 37 39  1  0  0  0  0
 37 68  1  0  0  0  0
 38 69  1  0  0  0  0
 39 70  1  0  0  0  0
 39 71  1  0  0  0  0
 40 42  1  0  0  0  0
 41 73  1  0  0  0  0
 42 44  2  0  0  0  0
 43 45  1  0  0  0  0
 43 46  1  0  0  0  0
 43 47  1  0  0  0  0
 43 48  1  0  0  0  0
 45 50  1  0  0  0  0
 45 74  1  0  0  0  0
 46 75  1  0  0  0  0
 46 76  1  0  0  0  0
 47 77  1  0  0  0  0
 47 78  1  0  0  0  0
 47 79  1  0  0  0  0
 48 80  1  0  0  0  0
 48 81  1  0  0  0  0
 48 82  1  0  0  0  0
 49 85  1  0  0  0  0
 51 52  1  0  0  0  0
 51 53  2  0  0  0  0
 51 57  1  0  0  0  0
 52 54  1  0  0  0  0
 52 91  1  0  0  0  0
 52 92  1  0  0  0  0
 53 56  1  0  0  0  0
 54 93  1  0  0  0  0
 54 94  1  0  0  0  0
 55 58  1  0  0  0  0
 55 95  1  0  0  0  0
 55 96  1  0  0  0  0
 56 97  1  0  0  0  0
 56 98  1  0  0  0  0
 57 59  2  0  0  0  0
 57 60  1  0  0  0  0
 58 61  1  0  0  0  0
 58101  1  0  0  0  0
 58102  1  0  0  0  0
 62 65  1  0  0  0  0
 63 64  1  0  0  0  0
 63105  1  0  0  0  0
 63106  1  0  0  0  0
 64107  1  0  0  0  0
 64108  1  0  0  0  0
M  END
> <PUBCHEM_COMPOUND_CID>
155489348

> <PUBCHEM_COMPOUND_CANONICALIZED>
1

> <PUBCHEM_CACTVS_COMPLEXITY>
1890

> <PUBCHEM_CACTVS_HBOND_ACCEPTOR>
27

> <PUBCHEM_CACTVS_HBOND_DONOR>
12

> <PUBCHEM_CACTVS_ROTATABLE_BOND>
23

> <PUBCHEM_CACTVS_SUBSKEYS>
AAADcfB7/gNgAAAAAAAAAAAAAAAAAWJEgAAsWAAAAAAAAFgB/gAAHgQQCCAADhzl3waH+b/MFxisQwfxfIKDgK11GLkB2LHoXNiLfjrg3PGeVYhv1gP72Wb6MQIPgAAAAAAAAAAAAAAAAAAAAAAAAAAAAA==

> <PUBCHEM_IUPAC_OPENEYE_NAME>
2-[[2-[2-[3-[[4-[[[5-(6-aminopurin-9-yl)-4-hydroxy-3-phosphonooxy-tetrahydrofuran-2-yl]methoxy-hydroxy-phosphoryl]oxy-hydroxy-phosphoryl]oxy-2-hydroxy-3,3-dimethyl-butanoyl]amino]propanoylamino]ethylsulfanyl]-2-oxo-acetyl]amino]-4,5,6,7-tetrahydrothieno[2,3-c]pyridine-3-carboxylic acid

> <PUBCHEM_IUPAC_CAS_NAME>
2-[[2-[2-[[3-[[4-[[[5-(6-aminopurin-9-yl)-4-hydroxy-3-phosphonooxy-2-oxolanyl]methoxy-hydroxyphosphoryl]oxy-hydroxyphosphoryl]oxy-2-hydroxy-3,3-dimethyl-1-oxobutyl]amino]-1-oxopropyl]amino]ethylthio]-1,2-dioxoethyl]amino]-4,5,6,7-tetrahydrothieno[2,3-c]pyridine-3-carboxylic acid

> <PUBCHEM_IUPAC_NAME_MARKUP>
2-[[2-[2-[3-[[4-[[[5-(6-aminopurin-9-yl)-4-hydroxy-3-phosphonooxyoxolan-2-yl]methoxy-hydroxyphosphoryl]oxy-hydroxyphosphoryl]oxy-2-hydroxy-3,3-dimethylbutanoyl]amino]propanoylamino]ethylsulfanyl]-2-oxoacetyl]amino]-4,5,6,7-tetrahydrothieno[2,3-c]pyridine-3-carboxylic acid

> <PUBCHEM_IUPAC_NAME>
2-[[2-[2-[3-[[4-[[[5-(6-aminopurin-9-yl)-4-hydroxy-3-phosphonooxyoxolan-2-yl]methoxy-hydroxyphosphoryl]oxy-hydroxyphosphoryl]oxy-2-hydroxy-3,3-dimethylbutanoyl]amino]propanoylamino]ethylsulfanyl]-2-oxoacetyl]amino]-4,5,6,7-tetrahydrothieno[2,3-c]pyridine-3-carboxylic acid

> <PUBCHEM_IUPAC_SYSTEMATIC_NAME>
2-[[2-[2-[3-[[4-[[[5-(6-aminopurin-9-yl)-4-oxidanyl-3-phosphonooxy-oxolan-2-yl]methoxy-oxidanyl-phosphoryl]oxy-oxidanyl-phosphoryl]oxy-3,3-dimethyl-2-oxidanyl-butanoyl]amino]propanoylamino]ethylsulfanyl]-2-oxidanylidene-ethanoyl]amino]-4,5,6,7-tetrahydrothieno[2,3-c]pyridine-3-carboxylic acid

> <PUBCHEM_IUPAC_TRADITIONAL_NAME>
2-[[2-[2-[3-[[4-[[(5-adenin-9-yl-4-hydroxy-3-phosphonooxy-tetrahydrofuran-2-yl)methoxy-hydroxy-phosphoryl]oxy-hydroxy-phosphoryl]oxy-2-hydroxy-3,3-dimethyl-butanoyl]amino]propanoylamino]ethylthio]-2-keto-acetyl]amino]-4,5,6,7-tetrahydrothieno[2,3-c]pyridine-3-carboxylic acid

> <PUBCHEM_IUPAC_INCHI>
InChI=1S/C31H44N9O20P3S2/c1-31(2,22(43)25(44)35-6-4-17(41)34-7-8-64-30(48)26(45)39-27-18(29(46)47)14-3-5-33-9-16(14)65-27)11-57-63(54,55)60-62(52,53)56-10-15-21(59-61(49,50)51)20(42)28(58-15)40-13-38-19-23(32)36-12-37-24(19)40/h12-13,15,20-22,28,33,42-43H,3-11H2,1-2H3,(H,34,41)(H,35,44)(H,39,45)(H,46,47)(H,52,53)(H,54,55)(H2,32,36,37)(H2,49,50,51)

> <PUBCHEM_IUPAC_INCHIKEY>
PAFDWRVPTUOLAI-UHFFFAOYSA-N

> <PUBCHEM_XLOGP3_AA>
-7.1

> <PUBCHEM_EXACT_MASS>
1019.13568817

> <PUBCHEM_MOLECULAR_FORMULA>
C31H44N9O20P3S2

> <PUBCHEM_MOLECULAR_WEIGHT>
1019.8

> <PUBCHEM_OPENEYE_CAN_SMILES>
CC(C)(COP(=O)(O)OP(=O)(O)OCC1C(C(C(O1)N2C=NC3=C(N=CN=C32)N)O)OP(=O)(O)O)C(C(=O)NCCC(=O)NCCSC(=O)C(=O)NC4=C(C5=C(S4)CNCC5)C(=O)O)O

> <PUBCHEM_OPENEYE_ISO_SMILES>
CC(C)(COP(=O)(O)OP(=O)(O)OCC1C(C(C(O1)N2C=NC3=C(N=CN=C32)N)O)OP(=O)(O)O)C(C(=O)NCCC(=O)NCCSC(=O)C(=O)NC4=C(C5=C(S4)CNCC5)C(=O)O)O

> <PUBCHEM_CACTVS_TPSA>
496

> <PUBCHEM_MONOISOTOPIC_WEIGHT>
1019.13568817

> <PUBCHEM_TOTAL_CHARGE>
0

> <PUBCHEM_HEAVY_ATOM_COUNT>
65

> <PUBCHEM_ATOM_DEF_STEREO_COUNT>
0

> <PUBCHEM_ATOM_UDEF_STEREO_COUNT>
5

> <PUBCHEM_BOND_DEF_STEREO_COUNT>
0

> <PUBCHEM_BOND_UDEF_STEREO_COUNT>
0

> <PUBCHEM_ISOTOPIC_ATOM_COUNT>
0

> <PUBCHEM_COMPONENT_COUNT>
1

> <PUBCHEM_CACTVS_TAUTO_COUNT>
-1

> <PUBCHEM_COORDINATE_TYPE>
1
5
255

> <PUBCHEM_BONDANNOTATIONS>
1  53  8
1  59  8
45  17  3
38  26  3
26  40  8
26  41  8
27  41  8
27  42  8
28  40  8
28  49  8
29  44  8
29  49  8
37  39  3
40  42  8
42  44  8
51  53  8
51  57  8
57  59  8
35  7  3
36  8  3

$$$$
155489351
  -OEChem-03012215082D

108112  0     1  0  0  0  0  0999 V2000
   27.2429    4.8246    0.0000 S   0  0  0  0  0  0  0  0  0  0  0  0
   24.8947    3.5009    0.0000 S   0  0  0  0  0  0  0  0  0  0  0  0
   21.4481    2.1507    0.0000 S   0  0  0  0  0  0  0  0  0  0  0  0
    5.3548    2.5523    0.0000 P   0  0  0  0  0  0  0  0  0  0  0  0
    8.4752    1.3125    0.0000 P   0  0  3  0  0  0  0  0  0  0  0  0
   10.1980    1.4906    0.0000 P   0  0  3  0  0  0  0  0  0  0  0  0
    5.9405   -0.4519    0.0000 O   0  0  0  0  0  0  0  0  0  0  0  0
    4.6844    1.8103    0.0000 O   0  0  0  0  0  0  0  0  0  0  0  0
    3.4026    0.0525    0.0000 O   0  0  0  0  0  0  0  0  0  0  0  0
    7.6651    0.7261    0.0000 O   0  0  0  0  0  0  0  0  0  0  0  0
    6.0252    3.2943    0.0000 O   0  0  0  0  0  0  0  0  0  0  0  0
    4.6128    3.2227    0.0000 O   0  0  0  0  0  0  0  0  0  0  0  0
    9.2852    1.8989    0.0000 O   0  0  0  0  0  0  0  0  0  0  0  0
    6.0968    1.8819    0.0000 O   0  0  0  0  0  0  0  0  0  0  0  0
   11.1109    1.0823    0.0000 O   0  0  0  0  0  0  0  0  0  0  0  0
    9.0615    0.5025    0.0000 O   0  0  0  0  0  0  0  0  0  0  0  0
    7.8888    2.1226    0.0000 O   0  0  0  0  0  0  0  0  0  0  0  0
   13.8494   -0.1427    0.0000 O   0  0  0  0  0  0  0  0  0  0  0  0
   10.6063    2.4034    0.0000 O   0  0  0  0  0  0  0  0  0  0  0  0
    9.7897    0.5778    0.0000 O   0  0  0  0  0  0  0  0  0  0  0  0
   14.4538    2.4331    0.0000 O   0  0  0  0  0  0  0  0  0  0  0  0
   17.8996    2.7892    0.0000 O   0  0  0  0  0  0  0  0  0  0  0  0
   27.1216    1.0338    0.0000 O   0  0  0  0  0  0  0  0  0  0  0  0
   25.4725    0.5042    0.0000 O   0  0  0  0  0  0  0  0  0  0  0  0
   23.0682    3.3234    0.0000 O   0  0  0  0  0  0  0  0  0  0  0  0
   22.4638    0.7477    0.0000 O   0  0  0  0  0  0  0  0  0  0  0  0
    4.6783   -1.7098    0.0000 N   0  0  0  0  0  0  0  0  0  0  0  0
    4.6783   -3.3193    0.0000 N   0  0  0  0  0  0  0  0  0  0  0  0
    2.8660   -1.5146    0.0000 N   0  0  0  0  0  0  0  0  0  0  0  0
    2.0000   -3.0146    0.0000 N   0  0  0  0  0  0  0  0  0  0  0  0
    2.8660   -4.5146    0.0000 N   0  0  0  0  0  0  0  0  0  0  0  0
   15.4695    1.0301    0.0000 N   0  0  0  0  0  0  0  0  0  0  0  0
   18.9152    1.3862    0.0000 N   0  0  0  0  0  0  0  0  0  0  0  0
   24.0838    1.9204    0.0000 N   0  0  0  0  0  0  0  0  0  0  0  0
    4.9917    0.8587    0.0000 C   0  0  3  0  0  0  0  0  0  0  0  0
    4.4026    0.0507    0.0000 C   0  0  3  0  0  0  0  0  0  0  0  0
    5.9422    0.5481    0.0000 C   0  0  3  0  0  0  0  0  0  0  0  0
    4.9889   -0.7593    0.0000 C   0  0  3  0  0  0  0  0  0  0  0  0
    6.7523    1.1345    0.0000 C   0  0  0  0  0  0  0  0  0  0  0  0
    3.7320   -2.0146    0.0000 C   0  0  0  0  0  0  0  0  0  0  0  0
    5.2619   -2.5146    0.0000 C   0  0  0  0  0  0  0  0  0  0  0  0
    3.7320   -3.0146    0.0000 C   0  0  0  0  0  0  0  0  0  0  0  0
   12.8337    1.2603    0.0000 C   0  0  0  0  0  0  0  0  0  0  0  0
    2.8660   -3.5146    0.0000 C   0  0  0  0  0  0  0  0  0  0  0  0
   13.7466    0.8520    0.0000 C   0  0  3  0  0  0  0  0  0  0  0  0
   11.9209    1.6687    0.0000 C   0  0  0  0  0  0  0  0  0  0  0  0
   13.2421    2.1732    0.0000 C   0  0  0  0  0  0  0  0  0  0  0  0
   12.4254    0.3475    0.0000 C   0  0  0  0  0  0  0  0  0  0  0  0
    2.0000   -2.0146    0.0000 C   0  0  0  0  0  0  0  0  0  0  0  0
   14.5566    1.4384    0.0000 C   0  0  0  0  0  0  0  0  0  0  0  0
   16.2795    1.6165    0.0000 C   0  0  0  0  0  0  0  0  0  0  0  0
   17.1923    1.2082    0.0000 C   0  0  0  0  0  0  0  0  0  0  0  0
   26.4263    2.9989    0.0000 C   0  0  0  0  0  0  0  0  0  0  0  0
   27.4210    3.1017    0.0000 C   0  0  0  0  0  0  0  0  0  0  0  0
   25.8399    3.8089    0.0000 C   0  0  0  0  0  0  0  0  0  0  0  0
   27.8293    4.0145    0.0000 C   0  0  0  0  0  0  0  0  0  0  0  0
   25.8385    2.1972    0.0000 C   0  0  0  0  0  0  0  0  0  0  0  0
   26.2482    4.7217    0.0000 C   0  0  0  0  0  0  0  0  0  0  0  0
   18.0024    1.7946    0.0000 C   0  0  0  0  0  0  0  0  0  0  0  0
   24.8939    2.5068    0.0000 C   0  0  0  0  0  0  0  0  0  0  0  0
   26.1442    1.2451    0.0000 C   0  0  0  0  0  0  0  0  0  0  0  0
   19.7252    1.9726    0.0000 C   0  0  0  0  0  0  0  0  0  0  0  0
   20.6381    1.5643    0.0000 C   0  0  0  0  0  0  0  0  0  0  0  0
   23.1710    2.3288    0.0000 C   0  0  0  0  0  0  0  0  0  0  0  0
   22.3610    1.7424    0.0000 C   0  0  0  0  0  0  0  0  0  0  0  0
    5.4309    1.2964    0.0000 H   0  0  0  0  0  0  0  0  0  0  0  0
    4.1201   -0.5012    0.0000 H   0  0  0  0  0  0  0  0  0  0  0  0
    6.4942    0.2656    0.0000 H   0  0  0  0  0  0  0  0  0  0  0  0
    5.4266   -1.1985    0.0000 H   0  0  0  0  0  0  0  0  0  0  0  0
    7.0999    1.6479    0.0000 H   0  0  0  0  0  0  0  0  0  0  0  0
    6.3070    1.5659    0.0000 H   0  0  0  0  0  0  0  0  0  0  0  0
    3.0935    0.5899    0.0000 H   0  0  0  0  0  0  0  0  0  0  0  0
    5.8819   -2.5146    0.0000 H   0  0  0  0  0  0  0  0  0  0  0  0
   13.2444    0.4885    0.0000 H   0  0  0  0  0  0  0  0  0  0  0  0
   12.2685    2.1821    0.0000 H   0  0  0  0  0  0  0  0  0  0  0  0
   11.4757    2.1001    0.0000 H   0  0  0  0  0  0  0  0  0  0  0  0
   13.8080    1.9200    0.0000 H   0  0  0  0  0  0  0  0  0  0  0  0
   13.4952    2.7392    0.0000 H   0  0  0  0  0  0  0  0  0  0  0  0
   12.6761    2.4263    0.0000 H   0  0  0  0  0  0  0  0  0  0  0  0
   11.8595    0.6007    0.0000 H   0  0  0  0  0  0  0  0  0  0  0  0
   12.1723   -0.2185    0.0000 H   0  0  0  0  0  0  0  0  0  0  0  0
   12.9914    0.0943    0.0000 H   0  0  0  0  0  0  0  0  0  0  0  0
    5.8346    3.8843    0.0000 H   0  0  0  0  0  0  0  0  0  0  0  0
    4.0228    3.0322    0.0000 H   0  0  0  0  0  0  0  0  0  0  0  0
    1.4631   -1.7046    0.0000 H   0  0  0  0  0  0  0  0  0  0  0  0
    8.8084   -0.0635    0.0000 H   0  0  0  0  0  0  0  0  0  0  0  0
    2.3291   -4.8246    0.0000 H   0  0  0  0  0  0  0  0  0  0  0  0
    3.4030   -4.8246    0.0000 H   0  0  0  0  0  0  0  0  0  0  0  0
   14.4154   -0.3958    0.0000 H   0  0  0  0  0  0  0  0  0  0  0  0
   15.5332    0.4134    0.0000 H   0  0  0  0  0  0  0  0  0  0  0  0
   16.6271    2.1299    0.0000 H   0  0  0  0  0  0  0  0  0  0  0  0
   15.8342    2.0479    0.0000 H   0  0  0  0  0  0  0  0  0  0  0  0
   10.2428    2.9056    0.0000 H   0  0  0  0  0  0  0  0  0  0  0  0
   16.8447    0.6948    0.0000 H   0  0  0  0  0  0  0  0  0  0  0  0
   17.6376    0.7767    0.0000 H   0  0  0  0  0  0  0  0  0  0  0  0
   27.3766    2.4833    0.0000 H   0  0  0  0  0  0  0  0  0  0  0  0
   28.0223    2.9506    0.0000 H   0  0  0  0  0  0  0  0  0  0  0  0
   28.3427    3.6669    0.0000 H   0  0  0  0  0  0  0  0  0  0  0  0
   28.2607    4.4598    0.0000 H   0  0  0  0  0  0  0  0  0  0  0  0
   26.2925    5.3402    0.0000 H   0  0  0  0  0  0  0  0  0  0  0  0
   25.6469    4.8728    0.0000 H   0  0  0  0  0  0  0  0  0  0  0  0
   18.9789    0.7695    0.0000 H   0  0  0  0  0  0  0  0  0  0  0  0
   24.1476    1.3037    0.0000 H   0  0  0  0  0  0  0  0  0  0  0  0
   20.0728    2.4860    0.0000 H   0  0  0  0  0  0  0  0  0  0  0  0
   19.2800    2.4041    0.0000 H   0  0  0  0  0  0  0  0  0  0  0  0
   20.2905    1.0509    0.0000 H   0  0  0  0  0  0  0  0  0  0  0  0
   21.0833    1.1328    0.0000 H   0  0  0  0  0  0  0  0  0  0  0  0
   27.3112    0.4434    0.0000 H   0  0  0  0  0  0  0  0  0  0  0  0
  1 56  1  0  0  0  0
  1 58  1  0  0  0  0
  2 55  1  0  0  0  0
  2 60  1  0  0  0  0
  3 63  1  0  0  0  0
  3 65  1  0  0  0  0
  4  8  1  0  0  0  0
  4 11  1  0  0  0  0
  4 12  1  0  0  0  0
  4 14  2  0  0  0  0
  5 10  1  0  0  0  0
  5 13  1  0  0  0  0
  5 16  1  0  0  0  0
  5 17  2  0  0  0  0
  6 13  1  0  0  0  0
  6 15  1  0  0  0  0
  6 19  1  0  0  0  0
  6 20  2  0  0  0  0
  7 37  1  0  0  0  0
  7 38  1  0  0  0  0
  8 35  1  0  0  0  0
  9 36  1  0  0  0  0
  9 72  1  0  0  0  0
 10 39  1  0  0  0  0
 11 83  1  0  0  0  0
 12 84  1  0  0  0  0
 15 46  1  0  0  0  0
 16 86  1  0  0  0  0
 18 45  1  0  0  0  0
 18 89  1  0  0  0  0
 19 93  1  0  0  0  0
 21 50  2  0  0  0  0
 22 59  2  0  0  0  0
 23 61  1  0  0  0  0
 23108  1  0  0  0  0
 24 61  2  0  0  0  0
 25 64  2  0  0  0  0
 26 65  2  0  0  0  0
 27 38  1  0  0  0  0
 27 40  1  0  0  0  0
 27 41  1  0  0  0  0
 28 41  2  0  0  0  0
 28 42  1  0  0  0  0
 29 40  2  0  0  0  0
 29 49  1  0  0  0  0
 30 44  1  0  0  0  0
 30 49  2  0  0  0  0
 31 44  1  0  0  0  0
 31 87  1  0  0  0  0
 31 88  1  0  0  0  0
 32 50  1  0  0  0  0
 32 51  1  0  0  0  0
 32 90  1  0  0  0  0
 33 59  1  0  0  0  0
 33 62  1  0  0  0  0
 33102  1  0  0  0  0
 34 60  1  0  0  0  0
 34 64  1  0  0  0  0
 34103  1  0  0  0  0
 35 36  1  0  0  0  0
 35 37  1  0  0  0  0
 35 66  1  0  0  0  0
 36 38  1  0  0  0  0
 36 67  1  0  0  0  0
 37 39  1  0  0  0  0
 37 68  1  0  0  0  0
 38 69  1  0  0  0  0
 39 70  1  0  0  0  0
 39 71  1  0  0  0  0
 40 42  1  0  0  0  0
 41 73  1  0  0  0  0
 42 44  2  0  0  0  0
 43 45  1  0  0  0  0
 43 46  1  0  0  0  0
 43 47  1  0  0  0  0
 43 48  1  0  0  0  0
 45 50  1  0  0  0  0
 45 74  1  0  0  0  0
 46 75  1  0  0  0  0
 46 76  1  0  0  0  0
 47 77  1  0  0  0  0
 47 78  1  0  0  0  0
 47 79  1  0  0  0  0
 48 80  1  0  0  0  0
 48 81  1  0  0  0  0
 48 82  1  0  0  0  0
 49 85  1  0  0  0  0
 51 52  1  0  0  0  0
 51 91  1  0  0  0  0
 51 92  1  0  0  0  0
 52 59  1  0  0  0  0
 52 94  1  0  0  0  0
 52 95  1  0  0  0  0
 53 54  1  0  0  0  0
 53 55  2  0  0  0  0
 53 57  1  0  0  0  0
 54 56  1  0  0  0  0
 54 96  1  0  0  0  0
 54 97  1  0  0  0  0
 55 58  1  0  0  0  0
 56 98  1  0  0  0  0
 56 99  1  0  0  0  0
 57 60  2  0  0  0  0
 57 61  1  0  0  0  0
 58100  1  0  0  0  0
 58101  1  0  0  0  0
 62 63  1  0  0  0  0
 62104  1  0  0  0  0
 62105  1  0  0  0  0
 63106  1  0  0  0  0
 63107  1  0  0  0  0
 64 65  1  0  0  0  0
M  END
> <PUBCHEM_COMPOUND_CID>
155489351

> <PUBCHEM_COMPOUND_CANONICALIZED>
1

> <PUBCHEM_CACTVS_COMPLEXITY>
1900

> <PUBCHEM_CACTVS_HBOND_ACCEPTOR>
27

> <PUBCHEM_CACTVS_HBOND_DONOR>
11

> <PUBCHEM_CACTVS_ROTATABLE_BOND>
23

> <PUBCHEM_CACTVS_SUBSKEYS>
AAADcfB7/gNgAAAAAAAAAAAAAAAAAWJEgAAsSAAAAAAAAFgB/gAAHgQQCCAADhzl3waH+b/MFxisQwfxfIKDgK11GLkB2LHoXNiLfjrg3PGeVYhv1gP72Wb6MAIPgAAAAAAAAAAAAAAAAAAAAAAAAAAAAA==

> <PUBCHEM_IUPAC_OPENEYE_NAME>
2-[[2-[2-[3-[[4-[[[5-(6-aminopurin-9-yl)-4-hydroxy-3-phosphonooxy-tetrahydrofuran-2-yl]methoxy-hydroxy-phosphoryl]oxy-hydroxy-phosphoryl]oxy-2-hydroxy-3,3-dimethyl-butanoyl]amino]propanoylamino]ethylsulfanyl]-2-oxo-acetyl]amino]-5,7-dihydro-4H-thieno[2,3-c]thiopyran-3-carboxylic acid

> <PUBCHEM_IUPAC_CAS_NAME>
2-[[2-[2-[[3-[[4-[[[5-(6-aminopurin-9-yl)-4-hydroxy-3-phosphonooxy-2-oxolanyl]methoxy-hydroxyphosphoryl]oxy-hydroxyphosphoryl]oxy-2-hydroxy-3,3-dimethyl-1-oxobutyl]amino]-1-oxopropyl]amino]ethylthio]-1,2-dioxoethyl]amino]-5,7-dihydro-4H-thieno[2,3-c]thiopyran-3-carboxylic acid

> <PUBCHEM_IUPAC_NAME_MARKUP>
2-[[2-[2-[3-[[4-[[[5-(6-aminopurin-9-yl)-4-hydroxy-3-phosphonooxyoxolan-2-yl]methoxy-hydroxyphosphoryl]oxy-hydroxyphosphoryl]oxy-2-hydroxy-3,3-dimethylbutanoyl]amino]propanoylamino]ethylsulfanyl]-2-oxoacetyl]amino]-5,7-dihydro-4<I>H</I>-thieno[2,3-c]thiopyran-3-carboxylic acid

> <PUBCHEM_IUPAC_NAME>
2-[[2-[2-[3-[[4-[[[5-(6-aminopurin-9-yl)-4-hydroxy-3-phosphonooxyoxolan-2-yl]methoxy-hydroxyphosphoryl]oxy-hydroxyphosphoryl]oxy-2-hydroxy-3,3-dimethylbutanoyl]amino]propanoylamino]ethylsulfanyl]-2-oxoacetyl]amino]-5,7-dihydro-4H-thieno[2,3-c]thiopyran-3-carboxylic acid

> <PUBCHEM_IUPAC_SYSTEMATIC_NAME>
2-[[2-[2-[3-[[4-[[[5-(6-aminopurin-9-yl)-4-oxidanyl-3-phosphonooxy-oxolan-2-yl]methoxy-oxidanyl-phosphoryl]oxy-oxidanyl-phosphoryl]oxy-3,3-dimethyl-2-oxidanyl-butanoyl]amino]propanoylamino]ethylsulfanyl]-2-oxidanylidene-ethanoyl]amino]-5,7-dihydro-4H-thieno[2,3-c]thiopyran-3-carboxylic acid

> <PUBCHEM_IUPAC_TRADITIONAL_NAME>
2-[[2-[2-[3-[[4-[[(5-adenin-9-yl-4-hydroxy-3-phosphonooxy-tetrahydrofuran-2-yl)methoxy-hydroxy-phosphoryl]oxy-hydroxy-phosphoryl]oxy-2-hydroxy-3,3-dimethyl-butanoyl]amino]propanoylamino]ethylthio]-2-keto-acetyl]amino]-5,7-dihydro-4H-thieno[2,3-c]thiopyran-3-carboxylic acid

> <PUBCHEM_IUPAC_INCHI>
InChI=1S/C31H43N8O20P3S3/c1-31(2,22(42)25(43)34-5-3-17(40)33-6-8-64-30(47)26(44)38-27-18(29(45)46)14-4-7-63-10-16(14)65-27)11-56-62(53,54)59-61(51,52)55-9-15-21(58-60(48,49)50)20(41)28(57-15)39-13-37-19-23(32)35-12-36-24(19)39/h12-13,15,20-22,28,41-42H,3-11H2,1-2H3,(H,33,40)(H,34,43)(H,38,44)(H,45,46)(H,51,52)(H,53,54)(H2,32,35,36)(H2,48,49,50)

> <PUBCHEM_IUPAC_INCHIKEY>
PBLQCJHRTWEDOM-UHFFFAOYSA-N

> <PUBCHEM_XLOGP3_AA>
-3.8

> <PUBCHEM_EXACT_MASS>
1036.09686030

> <PUBCHEM_MOLECULAR_FORMULA>
C31H43N8O20P3S3

> <PUBCHEM_MOLECULAR_WEIGHT>
1036.8

> <PUBCHEM_OPENEYE_CAN_SMILES>
CC(C)(COP(=O)(O)OP(=O)(O)OCC1C(C(C(O1)N2C=NC3=C(N=CN=C32)N)O)OP(=O)(O)O)C(C(=O)NCCC(=O)NCCSC(=O)C(=O)NC4=C(C5=C(S4)CSCC5)C(=O)O)O

> <PUBCHEM_OPENEYE_ISO_SMILES>
CC(C)(COP(=O)(O)OP(=O)(O)OCC1C(C(C(O1)N2C=NC3=C(N=CN=C32)N)O)OP(=O)(O)O)C(C(=O)NCCC(=O)NCCSC(=O)C(=O)NC4=C(C5=C(S4)CSCC5)C(=O)O)O

> <PUBCHEM_CACTVS_TPSA>
509

> <PUBCHEM_MONOISOTOPIC_WEIGHT>
1036.09686030

> <PUBCHEM_TOTAL_CHARGE>
0

> <PUBCHEM_HEAVY_ATOM_COUNT>
65

> <PUBCHEM_ATOM_DEF_STEREO_COUNT>
0

> <PUBCHEM_ATOM_UDEF_STEREO_COUNT>
5

> <PUBCHEM_BOND_DEF_STEREO_COUNT>
0

> <PUBCHEM_BOND_UDEF_STEREO_COUNT>
0

> <PUBCHEM_ISOTOPIC_ATOM_COUNT>
0

> <PUBCHEM_COMPONENT_COUNT>
1

> <PUBCHEM_CACTVS_TAUTO_COUNT>
-1

> <PUBCHEM_COORDINATE_TYPE>
1
5
255

> <PUBCHEM_BONDANNOTATIONS>
45  18  3
2  55  8
2  60  8
38  27  3
27  40  8
27  41  8
28  41  8
28  42  8
29  40  8
29  49  8
30  44  8
30  49  8
37  39  3
40  42  8
42  44  8
53  55  8
53  57  8
57  60  8
35  8  3
36  9  3

$$$$
155489391
  -OEChem-03012215082D

128131  0     1  0  0  0  0  0999 V2000
    8.8445    5.2122    0.0000 S   0  0  0  0  0  0  0  0  0  0  0  0
   22.0687   -3.9681    0.0000 P   0  0  0  0  0  0  0  0  0  0  0  0
   18.8184   -3.1257    0.0000 P   0  0  3  0  0  0  0  0  0  0  0  0
   17.5332   -1.9645    0.0000 P   0  0  3  0  0  0  0  0  0  0  0  0
   19.8217   -6.0465    0.0000 O   0  0  0  0  0  0  0  0  0  0  0  0
   22.1715   -4.9628    0.0000 O   0  0  0  0  0  0  0  0  0  0  0  0
   22.1677   -7.1384    0.0000 O   0  0  0  0  0  0  0  0  0  0  0  0
   19.1258   -4.0773    0.0000 O   0  0  0  0  0  0  0  0  0  0  0  0
   21.9659   -2.9734    0.0000 O   0  0  0  0  0  0  0  0  0  0  0  0
   23.0634   -3.8653    0.0000 O   0  0  0  0  0  0  0  0  0  0  0  0
   18.5110   -2.1741    0.0000 O   0  0  0  0  0  0  0  0  0  0  0  0
   21.0740   -4.0709    0.0000 O   0  0  0  0  0  0  0  0  0  0  0  0
   17.8668   -3.4331    0.0000 O   0  0  0  0  0  0  0  0  0  0  0  0
   16.5554   -1.7549    0.0000 O   0  0  0  0  0  0  0  0  0  0  0  0
   19.7700   -2.8184    0.0000 O   0  0  0  0  0  0  0  0  0  0  0  0
    6.5816    6.5830    0.0000 O   0  0  0  0  0  0  0  0  0  0  0  0
   13.6221   -1.1261    0.0000 O   0  0  0  0  0  0  0  0  0  0  0  0
   17.7428   -0.9867    0.0000 O   0  0  0  0  0  0  0  0  0  0  0  0
   17.3236   -2.9423    0.0000 O   0  0  0  0  0  0  0  0  0  0  0  0
   14.6555    1.3095    0.0000 O   0  0  0  0  0  0  0  0  0  0  0  0
    4.9890    8.6958    0.0000 O   0  0  0  0  0  0  0  0  0  0  0  0
    8.2854    9.7606    0.0000 O   0  0  0  0  0  0  0  0  0  0  0  0
    7.1963    4.6799    0.0000 O   0  0  0  0  0  0  0  0  0  0  0  0
   12.0852    3.6318    0.0000 O   0  0  0  0  0  0  0  0  0  0  0  0
   20.0975   -7.8070    0.0000 N   0  0  0  0  0  0  0  0  0  0  0  0
   20.0975   -9.4165    0.0000 N   0  0  0  0  0  0  0  0  0  0  0  0
   18.2852   -7.6118    0.0000 N   0  0  0  0  0  0  0  0  0  0  0  0
   17.4192   -9.1118    0.0000 N   0  0  0  0  0  0  0  0  0  0  0  0
   18.2852  -10.6118    0.0000 N   0  0  0  0  0  0  0  0  0  0  0  0
    6.6372    9.2282    0.0000 N   0  0  0  0  0  0  0  0  0  0  0  0
    4.6260    7.0022    0.0000 N   0  0  0  0  0  0  0  0  0  0  0  0
    8.5928    8.8090    0.0000 N   0  0  0  0  0  0  0  0  0  0  0  0
   13.0073    0.7771    0.0000 N   0  0  0  0  0  0  0  0  0  0  0  0
   10.4370    3.0995    0.0000 N   0  0  0  0  0  0  0  0  0  0  0  0
   10.2410    9.3414    0.0000 N   0  0  0  0  0  0  0  0  0  0  0  0
    9.8780    7.6478    0.0000 N   0  0  0  0  0  0  0  0  0  0  0  0
   21.3614   -5.5492    0.0000 C   0  0  3  0  0  0  0  0  0  0  0  0
   21.3597   -6.5492    0.0000 C   0  0  3  0  0  0  0  0  0  0  0  0
   20.4109   -5.2385    0.0000 C   0  0  3  0  0  0  0  0  0  0  0  0
   20.4081   -6.8565    0.0000 C   0  0  3  0  0  0  0  0  0  0  0  0
   20.1035   -4.2869    0.0000 C   0  0  0  0  0  0  0  0  0  0  0  0
   19.1512   -8.1118    0.0000 C   0  0  0  0  0  0  0  0  0  0  0  0
   20.6811   -8.6118    0.0000 C   0  0  0  0  0  0  0  0  0  0  0  0
   19.1512   -9.1118    0.0000 C   0  0  0  0  0  0  0  0  0  0  0  0
   18.2852   -9.6118    0.0000 C   0  0  0  0  0  0  0  0  0  0  0  0
   15.2703   -0.5937    0.0000 C   0  0  0  0  0  0  0  0  0  0  0  0
   14.2925   -0.3841    0.0000 C   0  0  3  0  0  0  0  0  0  0  0  0
   16.2481   -0.8033    0.0000 C   0  0  0  0  0  0  0  0  0  0  0  0
    6.9446    8.2766    0.0000 C   0  0  3  0  0  0  0  0  0  0  0  0
   17.4192   -8.1118    0.0000 C   0  0  0  0  0  0  0  0  0  0  0  0
    6.2742    7.5346    0.0000 C   0  0  3  0  0  0  0  0  0  0  0  0
   15.4799    0.3841    0.0000 C   0  0  0  0  0  0  0  0  0  0  0  0
   15.0607   -1.5715    0.0000 C   0  0  0  0  0  0  0  0  0  0  0  0
    7.9224    8.0670    0.0000 C   0  0  3  0  0  0  0  0  0  0  0  0
   13.9851    0.5675    0.0000 C   0  0  0  0  0  0  0  0  0  0  0  0
    8.2298    7.1154    0.0000 C   0  0  0  0  0  0  0  0  0  0  0  0
    5.2964    7.7442    0.0000 C   0  0  0  0  0  0  0  0  0  0  0  0
    7.5594    6.3734    0.0000 C   0  0  0  0  0  0  0  0  0  0  0  0
    3.6482    7.2118    0.0000 C   0  0  0  0  0  0  0  0  0  0  0  0
    7.3076    9.9702    0.0000 C   0  0  0  0  0  0  0  0  0  0  0  0
   12.7000    1.7287    0.0000 C   0  0  0  0  0  0  0  0  0  0  0  0
    7.8667    5.4218    0.0000 C   0  0  0  0  0  0  0  0  0  0  0  0
    4.9334    6.0507    0.0000 C   0  0  0  0  0  0  0  0  0  0  0  0
    2.9778    6.4699    0.0000 C   0  0  0  0  0  0  0  0  0  0  0  0
   11.7222    1.9383    0.0000 C   0  0  0  0  0  0  0  0  0  0  0  0
    9.5706    8.5994    0.0000 C   0  0  0  0  0  0  0  0  0  0  0  0
    7.0003   10.9218    0.0000 C   0  0  0  0  0  0  0  0  0  0  0  0
    2.0000    6.6795    0.0000 C   0  0  0  0  0  0  0  0  0  0  0  0
    9.1519    4.2607    0.0000 C   0  0  0  0  0  0  0  0  0  0  0  0
   11.4148    2.8899    0.0000 C   0  0  0  0  0  0  0  0  0  0  0  0
   10.1297    4.0510    0.0000 C   0  0  0  0  0  0  0  0  0  0  0  0
   21.2655   -4.9366    0.0000 H   0  0  0  0  0  0  0  0  0  0  0  0
   21.9126   -6.2686    0.0000 H   0  0  0  0  0  0  0  0  0  0  0  0
   19.7987   -5.1405    0.0000 H   0  0  0  0  0  0  0  0  0  0  0  0
   20.8458   -7.2957    0.0000 H   0  0  0  0  0  0  0  0  0  0  0  0
   20.7177   -4.2017    0.0000 H   0  0  0  0  0  0  0  0  0  0  0  0
   20.1263   -3.6673    0.0000 H   0  0  0  0  0  0  0  0  0  0  0  0
   22.7345   -6.8872    0.0000 H   0  0  0  0  0  0  0  0  0  0  0  0
   21.3011   -8.6118    0.0000 H   0  0  0  0  0  0  0  0  0  0  0  0
   13.6863   -0.2542    0.0000 H   0  0  0  0  0  0  0  0  0  0  0  0
   16.8622   -0.7181    0.0000 H   0  0  0  0  0  0  0  0  0  0  0  0
   16.2708   -0.1837    0.0000 H   0  0  0  0  0  0  0  0  0  0  0  0
    6.3384    8.4066    0.0000 H   0  0  0  0  0  0  0  0  0  0  0  0
   22.4681   -2.6098    0.0000 H   0  0  0  0  0  0  0  0  0  0  0  0
   23.4269   -4.3675    0.0000 H   0  0  0  0  0  0  0  0  0  0  0  0
   16.8822   -7.8018    0.0000 H   0  0  0  0  0  0  0  0  0  0  0  0
    5.8585    7.0746    0.0000 H   0  0  0  0  0  0  0  0  0  0  0  0
    7.7318    8.6570    0.0000 H   0  0  0  0  0  0  0  0  0  0  0  0
   16.0861    0.2541    0.0000 H   0  0  0  0  0  0  0  0  0  0  0  0
   15.6098    0.9903    0.0000 H   0  0  0  0  0  0  0  0  0  0  0  0
   14.8737    0.5140    0.0000 H   0  0  0  0  0  0  0  0  0  0  0  0
   14.4545   -1.4416    0.0000 H   0  0  0  0  0  0  0  0  0  0  0  0
   14.9307   -2.1777    0.0000 H   0  0  0  0  0  0  0  0  0  0  0  0
   15.6669   -1.7015    0.0000 H   0  0  0  0  0  0  0  0  0  0  0  0
   17.7368   -4.0393    0.0000 H   0  0  0  0  0  0  0  0  0  0  0  0
   17.7483  -10.9218    0.0000 H   0  0  0  0  0  0  0  0  0  0  0  0
   18.8221  -10.9218    0.0000 H   0  0  0  0  0  0  0  0  0  0  0  0
    8.8360    6.9855    0.0000 H   0  0  0  0  0  0  0  0  0  0  0  0
    6.0310    9.3582    0.0000 H   0  0  0  0  0  0  0  0  0  0  0  0
   13.0159   -0.9962    0.0000 H   0  0  0  0  0  0  0  0  0  0  0  0
   12.5917    0.3170    0.0000 H   0  0  0  0  0  0  0  0  0  0  0  0
    3.8814    7.7863    0.0000 H   0  0  0  0  0  0  0  0  0  0  0  0
    3.1230    7.5413    0.0000 H   0  0  0  0  0  0  0  0  0  0  0  0
   18.3328   -0.7962    0.0000 H   0  0  0  0  0  0  0  0  0  0  0  0
   13.3141    1.8139    0.0000 H   0  0  0  0  0  0  0  0  0  0  0  0
   12.7227    2.3482    0.0000 H   0  0  0  0  0  0  0  0  0  0  0  0
    4.3434    5.8601    0.0000 H   0  0  0  0  0  0  0  0  0  0  0  0
    5.1239    5.4607    0.0000 H   0  0  0  0  0  0  0  0  0  0  0  0
    5.5233    6.2412    0.0000 H   0  0  0  0  0  0  0  0  0  0  0  0
    2.7445    5.8954    0.0000 H   0  0  0  0  0  0  0  0  0  0  0  0
    3.5030    6.1404    0.0000 H   0  0  0  0  0  0  0  0  0  0  0  0
   11.1081    1.8530    0.0000 H   0  0  0  0  0  0  0  0  0  0  0  0
   11.6995    1.3187    0.0000 H   0  0  0  0  0  0  0  0  0  0  0  0
    7.5903   11.1124    0.0000 H   0  0  0  0  0  0  0  0  0  0  0  0
    6.8097   11.5118    0.0000 H   0  0  0  0  0  0  0  0  0  0  0  0
    6.4103   10.7312    0.0000 H   0  0  0  0  0  0  0  0  0  0  0  0
    2.1300    7.2857    0.0000 H   0  0  0  0  0  0  0  0  0  0  0  0
    1.3938    6.8094    0.0000 H   0  0  0  0  0  0  0  0  0  0  0  0
    1.8700    6.0732    0.0000 H   0  0  0  0  0  0  0  0  0  0  0  0
    8.5378    4.1754    0.0000 H   0  0  0  0  0  0  0  0  0  0  0  0
    9.1292    3.6411    0.0000 H   0  0  0  0  0  0  0  0  0  0  0  0
   10.7438    4.1363    0.0000 H   0  0  0  0  0  0  0  0  0  0  0  0
   10.1524    4.6706    0.0000 H   0  0  0  0  0  0  0  0  0  0  0  0
   10.0214    2.6394    0.0000 H   0  0  0  0  0  0  0  0  0  0  0  0
   10.8472    9.2114    0.0000 H   0  0  0  0  0  0  0  0  0  0  0  0
   10.0504    9.9314    0.0000 H   0  0  0  0  0  0  0  0  0  0  0  0
   10.4842    7.5178    0.0000 H   0  0  0  0  0  0  0  0  0  0  0  0
    9.4623    7.1878    0.0000 H   0  0  0  0  0  0  0  0  0  0  0  0
  1 62  1  0  0  0  0
  1 69  1  0  0  0  0
  2  6  1  0  0  0  0
  2  9  1  0  0  0  0
  2 10  1  0  0  0  0
  2 12  2  0  0  0  0
  3  8  1  0  0  0  0
  3 11  1  0  0  0  0
  3 13  1  0  0  0  0
  3 15  2  0  0  0  0
  4 11  1  0  0  0  0
  4 14  1  0  0  0  0
  4 18  1  0  0  0  0
  4 19  2  0  0  0  0
  5 39  1  0  0  0  0
  5 40  1  0  0  0  0
  6 37  1  0  0  0  0
  7 38  1  0  0  0  0
  7 78  1  0  0  0  0
  8 41  1  0  0  0  0
  9 84  1  0  0  0  0
 10 85  1  0  0  0  0
 13 95  1  0  0  0  0
 14 48  1  0  0  0  0
 16 51  1  0  0  0  0
 16 58  1  0  0  0  0
 17 47  1  0  0  0  0
 17100  1  0  0  0  0
 18104  1  0  0  0  0
 20 55  2  0  0  0  0
 21 57  2  0  0  0  0
 22 60  2  0  0  0  0
 23 62  2  0  0  0  0
 24 70  2  0  0  0  0
 25 40  1  0  0  0  0
 25 42  1  0  0  0  0
 25 43  1  0  0  0  0
 26 43  2  0  0  0  0
 26 44  1  0  0  0  0
 27 42  2  0  0  0  0
 27 50  1  0  0  0  0
 28 45  1  0  0  0  0
 28 50  2  0  0  0  0
 29 45  1  0  0  0  0
 29 96  1  0  0  0  0
 29 97  1  0  0  0  0
 30 49  1  0  0  0  0
 30 60  1  0  0  0  0
 30 99  1  0  0  0  0
 31 57  1  0  0  0  0
 31 59  1  0  0  0  0
 31 63  1  0  0  0  0
 32 54  1  0  0  0  0
 32 66  2  0  0  0  0
 33 55  1  0  0  0  0
 33 61  1  0  0  0  0
 33101  1  0  0  0  0
 34 70  1  0  0  0  0
 34 71  1  0  0  0  0
 34124  1  0  0  0  0
 35 66  1  0  0  0  0
 35125  1  0  0  0  0
 35126  1  0  0  0  0
 36 66  1  0  0  0  0
 36127  1  0  0  0  0
 36128  1  0  0  0  0
 37 38  1  0  0  0  0
 37 39  1  0  0  0  0
 37 72  1  0  0  0  0
 38 40  1  0  0  0  0
 38 73  1  0  0  0  0
 39 41  1  0  0  0  0
 39 74  1  0  0  0  0
 40 75  1  0  0  0  0
 41 76  1  0  0  0  0
 41 77  1  0  0  0  0
 42 44  1  0  0  0  0
 43 79  1  0  0  0  0
 44 45  2  0  0  0  0
 46 47  1  0  0  0  0
 46 48  1  0  0  0  0
 46 52  1  0  0  0  0
 46 53  1  0  0  0  0
 47 55  1  0  0  0  0
 47 80  1  0  0  0  0
 48 81  1  0  0  0  0
 48 82  1  0  0  0  0
 49 51  1  0  0  0  0
 49 54  1  0  0  0  0
 49 83  1  0  0  0  0
 50 86  1  0  0  0  0
 51 57  1  0  0  0  0
 51 87  1  0  0  0  0
 52 89  1  0  0  0  0
 52 90  1  0  0  0  0
 52 91  1  0  0  0  0
 53 92  1  0  0  0  0
 53 93  1  0  0  0  0
 53 94  1  0  0  0  0
 54 56  1  0  0  0  0
 54 88  1  0  0  0  0
 56 58  2  0  0  0  0
 56 98  1  0  0  0  0
 58 62  1  0  0  0  0
 59 64  1  0  0  0  0
 59102  1  0  0  0  0
 59103  1  0  0  0  0
 60 67  1  0  0  0  0
 61 65  1  0  0  0  0
 61105  1  0  0  0  0
 61106  1  0  0  0  0
 63107  1  0  0  0  0
 63108  1  0  0  0  0
 63109  1  0  0  0  0
 64 68  1  0  0  0  0
 64110  1  0  0  0  0
 64111  1  0  0  0  0
 65 70  1  0  0  0  0
 65112  1  0  0  0  0
 65113  1  0  0  0  0
 67114  1  0  0  0  0
 67115  1  0  0  0  0
 67116  1  0  0  0  0
 68117  1  0  0  0  0
 68118  1  0  0  0  0
 68119  1  0  0  0  0
 69 71  1  0  0  0  0
 69120  1  0  0  0  0
 69121  1  0  0  0  0
 71122  1  0  0  0  0
 71123  1  0  0  0  0
M  END
> <PUBCHEM_COMPOUND_CID>
155489391

> <PUBCHEM_COMPOUND_CANONICALIZED>
1

> <PUBCHEM_CACTVS_COMPLEXITY>
2120

> <PUBCHEM_CACTVS_HBOND_ACCEPTOR>
26

> <PUBCHEM_CACTVS_HBOND_DONOR>
12

> <PUBCHEM_CACTVS_ROTATABLE_BOND>
26

> <PUBCHEM_CACTVS_SUBSKEYS>
AAADcfB//gNAAAAAAAAAAAAAAAAAAWJAAAAsQAAAAAAAAFgB+AAAHgQQCCAADjzl1waH8L/MFxioQSdzdIKAiC0xMLABWKFoVFiDWBpAyEQfRAgPlgL7AaL+MAIJAAAAAAAAAAAAAAAAAAAAAAAAAAAAAA==

> <PUBCHEM_IUPAC_OPENEYE_NAME>
S-[2-[3-[[4-[[[5-(6-aminopurin-9-yl)-4-hydroxy-3-phosphonooxy-tetrahydrofuran-2-yl]methoxy-hydroxy-phosphoryl]oxy-hydroxy-phosphoryl]oxy-2-hydroxy-3,3-dimethyl-butanoyl]amino]propanoylamino]ethyl] 3-acetamido-4-guanidino-2-[methyl(propyl)carbamoyl]-3,4-dihydro-2H-pyran-6-carbothioate

> <PUBCHEM_IUPAC_CAS_NAME>
3-acetamido-4-(diaminomethylideneamino)-2-[[methyl(propyl)amino]-oxomethyl]-3,4-dihydro-2H-pyran-6-carbothioic acid S-[2-[[3-[[4-[[[5-(6-aminopurin-9-yl)-4-hydroxy-3-phosphonooxy-2-oxolanyl]methoxy-hydroxyphosphoryl]oxy-hydroxyphosphoryl]oxy-2-hydroxy-3,3-dimethyl-1-oxobutyl]amino]-1-oxopropyl]amino]ethyl] ester

> <PUBCHEM_IUPAC_NAME_MARKUP>
<I>S</I>-[2-[3-[[4-[[[5-(6-aminopurin-9-yl)-4-hydroxy-3-phosphonooxyoxolan-2-yl]methoxy-hydroxyphosphoryl]oxy-hydroxyphosphoryl]oxy-2-hydroxy-3,3-dimethylbutanoyl]amino]propanoylamino]ethyl] 3-acetamido-4-(diaminomethylideneamino)-2-[methyl(propyl)carbamoyl]-3,4-dihydro-2<I>H</I>-pyran-6-carbothioate

> <PUBCHEM_IUPAC_NAME>
S-[2-[3-[[4-[[[5-(6-aminopurin-9-yl)-4-hydroxy-3-phosphonooxyoxolan-2-yl]methoxy-hydroxyphosphoryl]oxy-hydroxyphosphoryl]oxy-2-hydroxy-3,3-dimethylbutanoyl]amino]propanoylamino]ethyl] 3-acetamido-4-(diaminomethylideneamino)-2-[methyl(propyl)carbamoyl]-3,4-dihydro-2H-pyran-6-carbothioate

> <PUBCHEM_IUPAC_SYSTEMATIC_NAME>
S-[2-[3-[[4-[[[5-(6-aminopurin-9-yl)-4-oxidanyl-3-phosphonooxy-oxolan-2-yl]methoxy-oxidanyl-phosphoryl]oxy-oxidanyl-phosphoryl]oxy-3,3-dimethyl-2-oxidanyl-butanoyl]amino]propanoylamino]ethyl] 3-acetamido-4-[bis(azanyl)methylideneamino]-2-[methyl(propyl)carbamoyl]-3,4-dihydro-2H-pyran-6-carbothioate

> <PUBCHEM_IUPAC_TRADITIONAL_NAME>
3-acetamido-4-guanidino-2-[methyl(propyl)carbamoyl]-3,4-dihydro-2H-pyran-6-carbothioic acid S-[2-[3-[[4-[[(5-adenin-9-yl-4-hydroxy-3-phosphonooxy-tetrahydrofuran-2-yl)methoxy-hydroxy-phosphoryl]oxy-hydroxy-phosphoryl]oxy-2-hydroxy-3,3-dimethyl-butanoyl]amino]propanoylamino]ethyl] ester

> <PUBCHEM_IUPAC_INCHI>
InChI=1S/C35H57N12O20P3S/c1-6-10-46(5)31(53)26-22(44-17(2)48)18(45-34(37)38)12-19(64-26)33(54)71-11-9-39-21(49)7-8-40-30(52)27(51)35(3,4)14-63-70(60,61)67-69(58,59)62-13-20-25(66-68(55,56)57)24(50)32(65-20)47-16-43-23-28(36)41-15-42-29(23)47/h12,15-16,18,20,22,24-27,32,50-51H,6-11,13-14H2,1-5H3,(H,39,49)(H,40,52)(H,44,48)(H,58,59)(H,60,61)(H2,36,41,42)(H4,37,38,45)(H2,55,56,57)

> <PUBCHEM_IUPAC_INCHIKEY>
QBDASAQWMPNZQS-UHFFFAOYSA-N

> <PUBCHEM_XLOGP3_AA>
-6.3

> <PUBCHEM_EXACT_MASS>
1090.27456442

> <PUBCHEM_MOLECULAR_FORMULA>
C35H57N12O20P3S

> <PUBCHEM_MOLECULAR_WEIGHT>
1090.9

> <PUBCHEM_OPENEYE_CAN_SMILES>
CCCN(C)C(=O)C1C(C(C=C(O1)C(=O)SCCNC(=O)CCNC(=O)C(C(C)(C)COP(=O)(O)OP(=O)(O)OCC2C(C(C(O2)N3C=NC4=C(N=CN=C43)N)O)OP(=O)(O)O)O)N=C(N)N)NC(=O)C

> <PUBCHEM_OPENEYE_ISO_SMILES>
CCCN(C)C(=O)C1C(C(C=C(O1)C(=O)SCCNC(=O)CCNC(=O)C(C(C)(C)COP(=O)(O)OP(=O)(O)OCC2C(C(C(O2)N3C=NC4=C(N=CN=C43)N)O)OP(=O)(O)O)O)N=C(N)N)NC(=O)C

> <PUBCHEM_CACTVS_TPSA>
512

> <PUBCHEM_MONOISOTOPIC_WEIGHT>
1090.27456442

> <PUBCHEM_TOTAL_CHARGE>
0

> <PUBCHEM_HEAVY_ATOM_COUNT>
71

> <PUBCHEM_ATOM_DEF_STEREO_COUNT>
0

> <PUBCHEM_ATOM_UDEF_STEREO_COUNT>
8

> <PUBCHEM_BOND_DEF_STEREO_COUNT>
0

> <PUBCHEM_BOND_UDEF_STEREO_COUNT>
0

> <PUBCHEM_ISOTOPIC_ATOM_COUNT>
0

> <PUBCHEM_COMPONENT_COUNT>
1

> <PUBCHEM_CACTVS_TAUTO_COUNT>
-1

> <PUBCHEM_COORDINATE_TYPE>
1
5
255

> <PUBCHEM_BONDANNOTATIONS>
47  17  3
40  25  3
25  42  8
25  43  8
26  43  8
26  44  8
27  42  8
27  50  8
28  45  8
28  50  8
49  30  3
54  32  3
39  41  3
42  44  8
44  45  8
51  57  3
37  6  3
38  7  3

$$$$
155489407
  -OEChem-03012215082D

144147  0     1  0  0  0  0  0999 V2000
   21.4481    0.3478    0.0000 S   0  0  0  0  0  0  0  0  0  0  0  0
    5.3548    0.7495    0.0000 P   0  0  0  0  0  0  0  0  0  0  0  0
    8.4752   -0.4903    0.0000 P   0  0  3  0  0  0  0  0  0  0  0  0
   10.1980   -0.3123    0.0000 P   0  0  3  0  0  0  0  0  0  0  0  0
    5.9405   -2.2548    0.0000 O   0  0  0  0  0  0  0  0  0  0  0  0
    4.6844    0.0075    0.0000 O   0  0  0  0  0  0  0  0  0  0  0  0
    3.4026   -1.7504    0.0000 O   0  0  0  0  0  0  0  0  0  0  0  0
    7.6651   -1.0767    0.0000 O   0  0  0  0  0  0  0  0  0  0  0  0
    6.0252    1.4914    0.0000 O   0  0  0  0  0  0  0  0  0  0  0  0
    4.6128    1.4199    0.0000 O   0  0  0  0  0  0  0  0  0  0  0  0
    6.0968    0.0790    0.0000 O   0  0  0  0  0  0  0  0  0  0  0  0
    9.2852    0.0961    0.0000 O   0  0  0  0  0  0  0  0  0  0  0  0
    9.0615   -1.3004    0.0000 O   0  0  0  0  0  0  0  0  0  0  0  0
    7.8888    0.3197    0.0000 O   0  0  0  0  0  0  0  0  0  0  0  0
   11.1109   -0.7206    0.0000 O   0  0  0  0  0  0  0  0  0  0  0  0
   13.8494   -1.9455    0.0000 O   0  0  0  0  0  0  0  0  0  0  0  0
   10.6063    0.6006    0.0000 O   0  0  0  0  0  0  0  0  0  0  0  0
    9.7897   -1.2251    0.0000 O   0  0  0  0  0  0  0  0  0  0  0  0
   24.7910    1.6987    0.0000 O   0  0  0  0  0  0  0  0  0  0  0  0
   28.6480   -1.9240    0.0000 O   0  0  0  0  0  0  0  0  0  0  0  0
   14.4538    0.6303    0.0000 O   0  0  0  0  0  0  0  0  0  0  0  0
   22.4638   -1.0552    0.0000 O   0  0  0  0  0  0  0  0  0  0  0  0
   22.0525    2.9236    0.0000 O   0  0  0  0  0  0  0  0  0  0  0  0
   17.8996    0.9864    0.0000 O   0  0  0  0  0  0  0  0  0  0  0  0
    4.6783   -3.5127    0.0000 N   0  0  0  0  0  0  0  0  0  0  0  0
    4.6783   -5.1221    0.0000 N   0  0  0  0  0  0  0  0  0  0  0  0
    2.8660   -3.3174    0.0000 N   0  0  0  0  0  0  0  0  0  0  0  0
   25.8067    0.2956    0.0000 N   0  0  0  0  0  0  0  0  0  0  0  0
   27.6324   -0.5210    0.0000 N   0  0  0  0  0  0  0  0  0  0  0  0
    2.0000   -4.8174    0.0000 N   0  0  0  0  0  0  0  0  0  0  0  0
    2.8660   -6.3174    0.0000 N   0  0  0  0  0  0  0  0  0  0  0  0
   24.0838    0.1176    0.0000 N   0  0  0  0  0  0  0  0  0  0  0  0
   29.3553   -0.3429    0.0000 N   0  0  0  0  0  0  0  0  0  0  0  0
   15.4695   -0.7728    0.0000 N   0  0  0  0  0  0  0  0  0  0  0  0
   24.4826    4.6828    0.0000 N   0  0  0  0  0  0  0  0  0  0  0  0
   18.9152   -0.4166    0.0000 N   0  0  0  0  0  0  0  0  0  0  0  0
   25.1899    6.2638    0.0000 N   0  0  0  0  0  0  0  0  0  0  0  0
   26.2055    4.8608    0.0000 N   0  0  0  0  0  0  0  0  0  0  0  0
    4.9917   -0.9441    0.0000 C   0  0  3  0  0  0  0  0  0  0  0  0
    4.4026   -1.7521    0.0000 C   0  0  3  0  0  0  0  0  0  0  0  0
    5.9422   -1.2548    0.0000 C   0  0  3  0  0  0  0  0  0  0  0  0
    4.9889   -2.5622    0.0000 C   0  0  3  0  0  0  0  0  0  0  0  0
    6.7523   -0.6684    0.0000 C   0  0  0  0  0  0  0  0  0  0  0  0
    3.7320   -3.8174    0.0000 C   0  0  0  0  0  0  0  0  0  0  0  0
    5.2619   -4.3174    0.0000 C   0  0  0  0  0  0  0  0  0  0  0  0
    3.7320   -4.8174    0.0000 C   0  0  0  0  0  0  0  0  0  0  0  0
    2.8660   -5.3174    0.0000 C   0  0  0  0  0  0  0  0  0  0  0  0
   12.8337   -0.5425    0.0000 C   0  0  0  0  0  0  0  0  0  0  0  0
    2.0000   -3.8174    0.0000 C   0  0  0  0  0  0  0  0  0  0  0  0
   26.6167    0.8820    0.0000 C   0  0  0  0  0  0  0  0  0  0  0  0
   25.9095   -0.6991    0.0000 C   0  0  0  0  0  0  0  0  0  0  0  0
   27.5296    0.4737    0.0000 C   0  0  0  0  0  0  0  0  0  0  0  0
   26.8223   -1.1074    0.0000 C   0  0  0  0  0  0  0  0  0  0  0  0
   11.9209   -0.1342    0.0000 C   0  0  0  0  0  0  0  0  0  0  0  0
   13.7466   -0.9508    0.0000 C   0  0  3  0  0  0  0  0  0  0  0  0
   23.1710    0.5259    0.0000 C   0  0  3  0  0  0  0  0  0  0  0  0
   23.0682    1.5206    0.0000 C   0  0  3  0  0  0  0  0  0  0  0  0
   13.2421    0.3703    0.0000 C   0  0  0  0  0  0  0  0  0  0  0  0
   12.4254   -1.4554    0.0000 C   0  0  0  0  0  0  0  0  0  0  0  0
   24.8939    0.7040    0.0000 C   0  0  0  0  0  0  0  0  0  0  0  0
   28.5452   -0.9293    0.0000 C   0  0  0  0  0  0  0  0  0  0  0  0
   30.2681   -0.7512    0.0000 C   0  0  0  0  0  0  0  0  0  0  0  0
   23.8782    2.1070    0.0000 C   0  0  0  0  0  0  0  0  0  0  0  0
   14.5566   -0.3644    0.0000 C   0  0  0  0  0  0  0  0  0  0  0  0
   23.7754    3.1017    0.0000 C   0  0  0  0  0  0  0  0  0  0  0  0
   22.3610   -0.0605    0.0000 C   0  0  0  0  0  0  0  0  0  0  0  0
   31.1809   -1.1596    0.0000 C   0  0  0  0  0  0  0  0  0  0  0  0
   30.6764    0.1616    0.0000 C   0  0  0  0  0  0  0  0  0  0  0  0
   29.8598   -1.6641    0.0000 C   0  0  0  0  0  0  0  0  0  0  0  0
   22.1553    1.9289    0.0000 C   0  0  0  0  0  0  0  0  0  0  0  0
   24.5854    3.6881    0.0000 C   0  0  0  0  0  0  0  0  0  0  0  0
   16.2795   -0.1864    0.0000 C   0  0  0  0  0  0  0  0  0  0  0  0
   17.1923   -0.5947    0.0000 C   0  0  0  0  0  0  0  0  0  0  0  0
   20.6381   -0.2386    0.0000 C   0  0  0  0  0  0  0  0  0  0  0  0
   19.7252    0.1698    0.0000 C   0  0  0  0  0  0  0  0  0  0  0  0
   18.0024   -0.0083    0.0000 C   0  0  0  0  0  0  0  0  0  0  0  0
   25.2927    5.2692    0.0000 C   0  0  0  0  0  0  0  0  0  0  0  0
    5.4309   -0.5065    0.0000 H   0  0  0  0  0  0  0  0  0  0  0  0
    4.1220   -1.1992    0.0000 H   0  0  0  0  0  0  0  0  0  0  0  0
    6.4942   -1.5372    0.0000 H   0  0  0  0  0  0  0  0  0  0  0  0
    5.4266   -3.0013    0.0000 H   0  0  0  0  0  0  0  0  0  0  0  0
    7.0999   -0.1550    0.0000 H   0  0  0  0  0  0  0  0  0  0  0  0
    6.3070   -0.2369    0.0000 H   0  0  0  0  0  0  0  0  0  0  0  0
    3.0935   -1.2129    0.0000 H   0  0  0  0  0  0  0  0  0  0  0  0
    5.8819   -4.3174    0.0000 H   0  0  0  0  0  0  0  0  0  0  0  0
    5.8346    2.0814    0.0000 H   0  0  0  0  0  0  0  0  0  0  0  0
    4.0228    1.2293    0.0000 H   0  0  0  0  0  0  0  0  0  0  0  0
   26.9643    1.3954    0.0000 H   0  0  0  0  0  0  0  0  0  0  0  0
   26.1715    1.3135    0.0000 H   0  0  0  0  0  0  0  0  0  0  0  0
   25.2911   -0.6547    0.0000 H   0  0  0  0  0  0  0  0  0  0  0  0
   25.7585   -1.3004    0.0000 H   0  0  0  0  0  0  0  0  0  0  0  0
    1.4631   -3.5074    0.0000 H   0  0  0  0  0  0  0  0  0  0  0  0
   28.1480    0.4294    0.0000 H   0  0  0  0  0  0  0  0  0  0  0  0
   27.6806    1.0750    0.0000 H   0  0  0  0  0  0  0  0  0  0  0  0
   26.4748   -1.6208    0.0000 H   0  0  0  0  0  0  0  0  0  0  0  0
   27.2676   -1.5388    0.0000 H   0  0  0  0  0  0  0  0  0  0  0  0
   12.2685    0.3792    0.0000 H   0  0  0  0  0  0  0  0  0  0  0  0
   11.4757    0.2973    0.0000 H   0  0  0  0  0  0  0  0  0  0  0  0
   13.2444   -1.3144    0.0000 H   0  0  0  0  0  0  0  0  0  0  0  0
   23.2347   -0.0908    0.0000 H   0  0  0  0  0  0  0  0  0  0  0  0
   23.0044    2.1373    0.0000 H   0  0  0  0  0  0  0  0  0  0  0  0
   13.8080    0.1172    0.0000 H   0  0  0  0  0  0  0  0  0  0  0  0
   13.4952    0.9363    0.0000 H   0  0  0  0  0  0  0  0  0  0  0  0
   12.6761    0.6235    0.0000 H   0  0  0  0  0  0  0  0  0  0  0  0
   11.8595   -1.2022    0.0000 H   0  0  0  0  0  0  0  0  0  0  0  0
   12.1723   -2.0213    0.0000 H   0  0  0  0  0  0  0  0  0  0  0  0
   12.9914   -1.7085    0.0000 H   0  0  0  0  0  0  0  0  0  0  0  0
    2.3291   -6.6274    0.0000 H   0  0  0  0  0  0  0  0  0  0  0  0
    3.4030   -6.6274    0.0000 H   0  0  0  0  0  0  0  0  0  0  0  0
    8.8084   -1.8663    0.0000 H   0  0  0  0  0  0  0  0  0  0  0  0
   24.1490    1.5492    0.0000 H   0  0  0  0  0  0  0  0  0  0  0  0
   24.4745    2.2768    0.0000 H   0  0  0  0  0  0  0  0  0  0  0  0
   24.1476   -0.4991    0.0000 H   0  0  0  0  0  0  0  0  0  0  0  0
   29.2915    0.2738    0.0000 H   0  0  0  0  0  0  0  0  0  0  0  0
   23.5046    3.6594    0.0000 H   0  0  0  0  0  0  0  0  0  0  0  0
   23.1791    2.9318    0.0000 H   0  0  0  0  0  0  0  0  0  0  0  0
   30.9278   -1.7255    0.0000 H   0  0  0  0  0  0  0  0  0  0  0  0
   31.7469   -1.4127    0.0000 H   0  0  0  0  0  0  0  0  0  0  0  0
   31.4341   -0.5936    0.0000 H   0  0  0  0  0  0  0  0  0  0  0  0
   31.2424   -0.0916    0.0000 H   0  0  0  0  0  0  0  0  0  0  0  0
   30.9296    0.7276    0.0000 H   0  0  0  0  0  0  0  0  0  0  0  0
   30.1104    0.4148    0.0000 H   0  0  0  0  0  0  0  0  0  0  0  0
   29.2938   -1.4109    0.0000 H   0  0  0  0  0  0  0  0  0  0  0  0
   29.6066   -2.2300    0.0000 H   0  0  0  0  0  0  0  0  0  0  0  0
   30.4257   -1.9172    0.0000 H   0  0  0  0  0  0  0  0  0  0  0  0
   21.6531    1.5654    0.0000 H   0  0  0  0  0  0  0  0  0  0  0  0
   14.4154   -2.1987    0.0000 H   0  0  0  0  0  0  0  0  0  0  0  0
   15.5332   -1.3895    0.0000 H   0  0  0  0  0  0  0  0  0  0  0  0
   24.8563    3.1303    0.0000 H   0  0  0  0  0  0  0  0  0  0  0  0
   25.1817    3.8579    0.0000 H   0  0  0  0  0  0  0  0  0  0  0  0
   10.2428    1.1028    0.0000 H   0  0  0  0  0  0  0  0  0  0  0  0
   16.6271    0.3270    0.0000 H   0  0  0  0  0  0  0  0  0  0  0  0
   15.8342    0.2451    0.0000 H   0  0  0  0  0  0  0  0  0  0  0  0
   16.8447   -1.1081    0.0000 H   0  0  0  0  0  0  0  0  0  0  0  0
   17.6376   -1.0262    0.0000 H   0  0  0  0  0  0  0  0  0  0  0  0
   20.2905   -0.7520    0.0000 H   0  0  0  0  0  0  0  0  0  0  0  0
   21.0833   -0.6700    0.0000 H   0  0  0  0  0  0  0  0  0  0  0  0
   20.0728    0.6832    0.0000 H   0  0  0  0  0  0  0  0  0  0  0  0
   19.2800    0.6012    0.0000 H   0  0  0  0  0  0  0  0  0  0  0  0
   18.9789   -1.0333    0.0000 H   0  0  0  0  0  0  0  0  0  0  0  0
   25.6921    6.6274    0.0000 H   0  0  0  0  0  0  0  0  0  0  0  0
   24.6239    6.5170    0.0000 H   0  0  0  0  0  0  0  0  0  0  0  0
   26.7077    5.2244    0.0000 H   0  0  0  0  0  0  0  0  0  0  0  0
   26.2692    4.2441    0.0000 H   0  0  0  0  0  0  0  0  0  0  0  0
  1 66  1  0  0  0  0
  1 74  1  0  0  0  0
  2  6  1  0  0  0  0
  2  9  1  0  0  0  0
  2 10  1  0  0  0  0
  2 11  2  0  0  0  0
  3  8  1  0  0  0  0
  3 12  1  0  0  0  0
  3 13  1  0  0  0  0
  3 14  2  0  0  0  0
  4 12  1  0  0  0  0
  4 15  1  0  0  0  0
  4 17  1  0  0  0  0
  4 18  2  0  0  0  0
  5 41  1  0  0  0  0
  5 42  1  0  0  0  0
  6 39  1  0  0  0  0
  7 40  1  0  0  0  0
  7 84  1  0  0  0  0
  8 43  1  0  0  0  0
  9 86  1  0  0  0  0
 10 87  1  0  0  0  0
 13110  1  0  0  0  0
 15 54  1  0  0  0  0
 16 55  1  0  0  0  0
 16127  1  0  0  0  0
 17131  1  0  0  0  0
 19 60  2  0  0  0  0
 20 61  2  0  0  0  0
 21 64  2  0  0  0  0
 22 66  2  0  0  0  0
 23 70  2  0  0  0  0
 24 76  2  0  0  0  0
 25 42  1  0  0  0  0
 25 44  1  0  0  0  0
 25 45  1  0  0  0  0
 26 45  2  0  0  0  0
 26 46  1  0  0  0  0
 27 44  2  0  0  0  0
 27 49  1  0  0  0  0
 28 50  1  0  0  0  0
 28 51  1  0  0  0  0
 28 60  1  0  0  0  0
 29 52  1  0  0  0  0
 29 53  1  0  0  0  0
 29 61  1  0  0  0  0
 30 47  1  0  0  0  0
 30 49  2  0  0  0  0
 31 47  1  0  0  0  0
 31108  1  0  0  0  0
 31109  1  0  0  0  0
 32 56  1  0  0  0  0
 32 60  1  0  0  0  0
 32113  1  0  0  0  0
 33 61  1  0  0  0  0
 33 62  1  0  0  0  0
 33114  1  0  0  0  0
 34 64  1  0  0  0  0
 34 72  1  0  0  0  0
 34128  1  0  0  0  0
 35 71  1  0  0  0  0
 35 77  2  0  0  0  0
 36 75  1  0  0  0  0
 36 76  1  0  0  0  0
 36140  1  0  0  0  0
 37 77  1  0  0  0  0
 37141  1  0  0  0  0
 37142  1  0  0  0  0
 38 77  1  0  0  0  0
 38143  1  0  0  0  0
 38144  1  0  0  0  0
 39 40  1  0  0  0  0
 39 41  1  0  0  0  0
 39 78  1  0  0  0  0
 40 42  1  0  0  0  0
 40 79  1  0  0  0  0
 41 43  1  0  0  0  0
 41 80  1  0  0  0  0
 42 81  1  0  0  0  0
 43 82  1  0  0  0  0
 43 83  1  0  0  0  0
 44 46  1  0  0  0  0
 45 85  1  0  0  0  0
 46 47  2  0  0  0  0
 48 54  1  0  0  0  0
 48 55  1  0  0  0  0
 48 58  1  0  0  0  0
 48 59  1  0  0  0  0
 49 92  1  0  0  0  0
 50 52  1  0  0  0  0
 50 88  1  0  0  0  0
 50 89  1  0  0  0  0
 51 53  1  0  0  0  0
 51 90  1  0  0  0  0
 51 91  1  0  0  0  0
 52 93  1  0  0  0  0
 52 94  1  0  0  0  0
 53 95  1  0  0  0  0
 53 96  1  0  0  0  0
 54 97  1  0  0  0  0
 54 98  1  0  0  0  0
 55 64  1  0  0  0  0
 55 99  1  0  0  0  0
 56 57  1  0  0  0  0
 56 66  1  0  0  0  0
 56100  1  0  0  0  0
 57 63  1  0  0  0  0
 57 70  1  0  0  0  0
 57101  1  0  0  0  0
 58102  1  0  0  0  0
 58103  1  0  0  0  0
 58104  1  0  0  0  0
 59105  1  0  0  0  0
 59106  1  0  0  0  0
 59107  1  0  0  0  0
 62 67  1  0  0  0  0
 62 68  1  0  0  0  0
 62 69  1  0  0  0  0
 63 65  1  0  0  0  0
 63111  1  0  0  0  0
 63112  1  0  0  0  0
 65 71  1  0  0  0  0
 65115  1  0  0  0  0
 65116  1  0  0  0  0
 67117  1  0  0  0  0
 67118  1  0  0  0  0
 67119  1  0  0  0  0
 68120  1  0  0  0  0
 68121  1  0  0  0  0
 68122  1  0  0  0  0
 69123  1  0  0  0  0
 69124  1  0  0  0  0
 69125  1  0  0  0  0
 70126  1  0  0  0  0
 71129  1  0  0  0  0
 71130  1  0  0  0  0
 72 73  1  0  0  0  0
 72132  1  0  0  0  0
 72133  1  0  0  0  0
 73 76  1  0  0  0  0
 73134  1  0  0  0  0
 73135  1  0  0  0  0
 74 75  1  0  0  0  0
 74136  1  0  0  0  0
 74137  1  0  0  0  0
 75138  1  0  0  0  0
 75139  1  0  0  0  0
M  END
> <PUBCHEM_COMPOUND_CID>
155489407

> <PUBCHEM_COMPOUND_CANONICALIZED>
1

> <PUBCHEM_CACTVS_COMPLEXITY>
2220

> <PUBCHEM_CACTVS_HBOND_ACCEPTOR>
26

> <PUBCHEM_CACTVS_HBOND_DONOR>
13

> <PUBCHEM_CACTVS_ROTATABLE_BOND>
29

> <PUBCHEM_CACTVS_SUBSKEYS>
AAADcfB//gNAAAAAAAAAAAAAAAAAAWJAAAAsWAAAAAAAAFgB+AAAHgQQCCAAD7zl1waH8L/MFxioQQ9x9IKAgC0RELABUKHoVBCDWBpgyGAeRAgPFgLzACH7OQIPAAAAAAAAAAAAAAAAAAAAAAAAAAAAAA==

> <PUBCHEM_IUPAC_OPENEYE_NAME>
S-[2-[3-[[4-[[[5-(6-aminopurin-9-yl)-4-hydroxy-3-phosphonooxy-tetrahydrofuran-2-yl]methoxy-hydroxy-phosphoryl]oxy-hydroxy-phosphoryl]oxy-2-hydroxy-3,3-dimethyl-butanoyl]amino]propanoylamino]ethyl] 2-[[4-(tert-butylcarbamoyl)piperazine-1-carbonyl]amino]-3-formyl-6-guanidino-hexanethioate

> <PUBCHEM_IUPAC_CAS_NAME>
2-[[[4-[(tert-butylamino)-oxomethyl]-1-piperazinyl]-oxomethyl]amino]-6-(diaminomethylideneamino)-3-formylhexanethioic acid S-[2-[[3-[[4-[[[5-(6-aminopurin-9-yl)-4-hydroxy-3-phosphonooxy-2-oxolanyl]methoxy-hydroxyphosphoryl]oxy-hydroxyphosphoryl]oxy-2-hydroxy-3,3-dimethyl-1-oxobutyl]amino]-1-oxopropyl]amino]ethyl] ester

> <PUBCHEM_IUPAC_NAME_MARKUP>
<I>S</I>-[2-[3-[[4-[[[5-(6-aminopurin-9-yl)-4-hydroxy-3-phosphonooxyoxolan-2-yl]methoxy-hydroxyphosphoryl]oxy-hydroxyphosphoryl]oxy-2-hydroxy-3,3-dimethylbutanoyl]amino]propanoylamino]ethyl] 2-[[4-(<I>tert</I>-butylcarbamoyl)piperazine-1-carbonyl]amino]-6-(diaminomethylideneamino)-3-formylhexanethioate

> <PUBCHEM_IUPAC_NAME>
S-[2-[3-[[4-[[[5-(6-aminopurin-9-yl)-4-hydroxy-3-phosphonooxyoxolan-2-yl]methoxy-hydroxyphosphoryl]oxy-hydroxyphosphoryl]oxy-2-hydroxy-3,3-dimethylbutanoyl]amino]propanoylamino]ethyl] 2-[[4-(tert-butylcarbamoyl)piperazine-1-carbonyl]amino]-6-(diaminomethylideneamino)-3-formylhexanethioate

> <PUBCHEM_IUPAC_SYSTEMATIC_NAME>
S-[2-[3-[[4-[[[5-(6-aminopurin-9-yl)-4-oxidanyl-3-phosphonooxy-oxolan-2-yl]methoxy-oxidanyl-phosphoryl]oxy-oxidanyl-phosphoryl]oxy-3,3-dimethyl-2-oxidanyl-butanoyl]amino]propanoylamino]ethyl] 6-[bis(azanyl)methylideneamino]-2-[[4-(tert-butylcarbamoyl)piperazin-1-yl]carbonylamino]-3-methanoyl-hexanethioate

> <PUBCHEM_IUPAC_TRADITIONAL_NAME>
2-[[4-(tert-butylcarbamoyl)piperazine-1-carbonyl]amino]-3-formyl-6-guanidino-hexanethioic acid S-[2-[3-[[4-[[(5-adenin-9-yl-4-hydroxy-3-phosphonooxy-tetrahydrofuran-2-yl)methoxy-hydroxy-phosphoryl]oxy-hydroxy-phosphoryl]oxy-2-hydroxy-3,3-dimethyl-butanoyl]amino]propanoylamino]ethyl] ester

> <PUBCHEM_IUPAC_INCHI>
InChI=1S/C39H67N14O20P3S/c1-38(2,3)50-37(61)52-14-12-51(13-15-52)36(60)49-25(22(17-54)7-6-9-45-35(41)42)34(59)77-16-11-43-24(55)8-10-44-32(58)29(57)39(4,5)19-70-76(67,68)73-75(65,66)69-18-23-28(72-74(62,63)64)27(56)33(71-23)53-21-48-26-30(40)46-20-47-31(26)53/h17,20-23,25,27-29,33,56-57H,6-16,18-19H2,1-5H3,(H,43,55)(H,44,58)(H,49,60)(H,50,61)(H,65,66)(H,67,68)(H2,40,46,47)(H4,41,42,45)(H2,62,63,64)

> <PUBCHEM_IUPAC_INCHIKEY>
QMACPYJMZHYUBJ-UHFFFAOYSA-N

> <PUBCHEM_XLOGP3_AA>
-7.5

> <PUBCHEM_EXACT_MASS>
1176.35896275

> <PUBCHEM_MOLECULAR_FORMULA>
C39H67N14O20P3S

> <PUBCHEM_MOLECULAR_WEIGHT>
1177.0

> <PUBCHEM_OPENEYE_CAN_SMILES>
CC(C)(C)NC(=O)N1CCN(CC1)C(=O)NC(C(CCCN=C(N)N)C=O)C(=O)SCCNC(=O)CCNC(=O)C(C(C)(C)COP(=O)(O)OP(=O)(O)OCC2C(C(C(O2)N3C=NC4=C(N=CN=C43)N)O)OP(=O)(O)O)O

> <PUBCHEM_OPENEYE_ISO_SMILES>
CC(C)(C)NC(=O)N1CCN(CC1)C(=O)NC(C(CCCN=C(N)N)C=O)C(=O)SCCNC(=O)CCNC(=O)C(C(C)(C)COP(=O)(O)OP(=O)(O)OCC2C(C(C(O2)N3C=NC4=C(N=CN=C43)N)O)OP(=O)(O)O)O

> <PUBCHEM_CACTVS_TPSA>
535

> <PUBCHEM_MONOISOTOPIC_WEIGHT>
1176.35896275

> <PUBCHEM_TOTAL_CHARGE>
0

> <PUBCHEM_HEAVY_ATOM_COUNT>
77

> <PUBCHEM_ATOM_DEF_STEREO_COUNT>
0

> <PUBCHEM_ATOM_UDEF_STEREO_COUNT>
7

> <PUBCHEM_BOND_DEF_STEREO_COUNT>
0

> <PUBCHEM_BOND_UDEF_STEREO_COUNT>
0

> <PUBCHEM_ISOTOPIC_ATOM_COUNT>
0

> <PUBCHEM_COMPONENT_COUNT>
1

> <PUBCHEM_CACTVS_TAUTO_COUNT>
-1

> <PUBCHEM_COORDINATE_TYPE>
1
5
255

> <PUBCHEM_BONDANNOTATIONS>
55  16  3
42  25  3
25  44  8
25  45  8
26  45  8
26  46  8
27  44  8
27  49  8
30  47  8
30  49  8
41  43  3
44  46  8
46  47  8
56  66  3
57  63  3
39  6  3
40  7  3

$$$$
155489479
  -OEChem-03012215082D

162167  0     1  0  0  0  0  0999 V2000
   21.4481   -2.2242    0.0000 S   0  0  0  0  0  0  0  0  0  0  0  0
    5.3548   -1.8226    0.0000 P   0  0  0  0  0  0  0  0  0  0  0  0
    8.4752   -3.0624    0.0000 P   0  0  3  0  0  0  0  0  0  0  0  0
   10.1980   -2.8843    0.0000 P   0  0  3  0  0  0  0  0  0  0  0  0
   23.8782   -0.4651    0.0000 P   0  0  0  0  0  0  0  0  0  0  0  0
    5.9405   -4.8269    0.0000 O   0  0  0  0  0  0  0  0  0  0  0  0
    4.6844   -2.5646    0.0000 O   0  0  0  0  0  0  0  0  0  0  0  0
    3.4026   -4.3225    0.0000 O   0  0  0  0  0  0  0  0  0  0  0  0
    7.6651   -3.6488    0.0000 O   0  0  0  0  0  0  0  0  0  0  0  0
   29.3428    5.6290    0.0000 O   0  0  0  0  0  0  0  0  0  0  0  0
    6.0252   -1.0806    0.0000 O   0  0  0  0  0  0  0  0  0  0  0  0
    4.6128   -1.1522    0.0000 O   0  0  0  0  0  0  0  0  0  0  0  0
    6.0968   -2.4930    0.0000 O   0  0  0  0  0  0  0  0  0  0  0  0
    9.2852   -2.4760    0.0000 O   0  0  0  0  0  0  0  0  0  0  0  0
    9.0615   -3.8724    0.0000 O   0  0  0  0  0  0  0  0  0  0  0  0
    7.8888   -2.2524    0.0000 O   0  0  0  0  0  0  0  0  0  0  0  0
   11.1109   -3.2927    0.0000 O   0  0  0  0  0  0  0  0  0  0  0  0
   13.8494   -4.5176    0.0000 O   0  0  0  0  0  0  0  0  0  0  0  0
   10.6063   -1.9715    0.0000 O   0  0  0  0  0  0  0  0  0  0  0  0
    9.7897   -3.7972    0.0000 O   0  0  0  0  0  0  0  0  0  0  0  0
   26.9127    3.8698    0.0000 O   0  0  0  0  0  0  0  0  0  0  0  0
   14.4538   -1.9418    0.0000 O   0  0  0  0  0  0  0  0  0  0  0  0
   29.9597   -0.3392    0.0000 O   0  0  0  0  0  0  0  0  0  0  0  0
   17.8996   -1.5857    0.0000 O   0  0  0  0  0  0  0  0  0  0  0  0
   24.0838   -2.4545    0.0000 O   0  0  0  0  0  0  0  0  0  0  0  0
   30.0625   -1.3339    0.0000 O   0  0  0  0  0  0  0  0  0  0  0  0
   22.9654   -0.0568    0.0000 O   0  0  0  0  0  0  0  0  0  0  0  0
   24.2865    0.4477    0.0000 O   0  0  0  0  0  0  0  0  0  0  0  0
   23.4699   -1.3779    0.0000 O   0  0  0  0  0  0  0  0  0  0  0  0
   22.4638   -3.6273    0.0000 O   0  0  0  0  0  0  0  0  0  0  0  0
    4.6783   -6.0848    0.0000 N   0  0  0  0  0  0  0  0  0  0  0  0
    4.6783   -7.6942    0.0000 N   0  0  0  0  0  0  0  0  0  0  0  0
    2.8660   -5.8895    0.0000 N   0  0  0  0  0  0  0  0  0  0  0  0
    2.0000   -7.3895    0.0000 N   0  0  0  0  0  0  0  0  0  0  0  0
    2.8660   -8.8895    0.0000 N   0  0  0  0  0  0  0  0  0  0  0  0
   28.9440    1.0638    0.0000 N   0  0  0  0  0  0  0  0  0  0  0  0
   15.4695   -3.3448    0.0000 N   0  0  0  0  0  0  0  0  0  0  0  0
   27.6200    5.4509    0.0000 N   0  0  0  0  0  0  0  0  0  0  0  0
   28.3396   -1.5120    0.0000 N   0  0  0  0  0  0  0  0  0  0  0  0
   18.9152   -2.9887    0.0000 N   0  0  0  0  0  0  0  0  0  0  0  0
    4.9917   -3.5162    0.0000 C   0  0  3  0  0  0  0  0  0  0  0  0
    4.4026   -4.3242    0.0000 C   0  0  3  0  0  0  0  0  0  0  0  0
   30.0501    7.2101    0.0000 C   0  0  0  0  0  0  0  0  0  0  0  0
    5.9422   -3.8269    0.0000 C   0  0  3  0  0  0  0  0  0  0  0  0
    4.9889   -5.1342    0.0000 C   0  0  3  0  0  0  0  0  0  0  0  0
   29.1372    7.6184    0.0000 C   0  0  0  0  0  0  0  0  0  0  0  0
   30.8601    7.7965    0.0000 C   0  0  0  0  0  0  0  0  0  0  0  0
   29.0344    8.6131    0.0000 C   0  0  0  0  0  0  0  0  0  0  0  0
   30.7573    8.7912    0.0000 C   0  0  0  0  0  0  0  0  0  0  0  0
   29.8444    9.1995    0.0000 C   0  0  0  0  0  0  0  0  0  0  0  0
   30.1529    6.2154    0.0000 C   0  0  0  0  0  0  0  0  0  0  0  0
    6.7523   -3.2405    0.0000 C   0  0  0  0  0  0  0  0  0  0  0  0
    3.7320   -6.3895    0.0000 C   0  0  0  0  0  0  0  0  0  0  0  0
    5.2619   -6.8895    0.0000 C   0  0  0  0  0  0  0  0  0  0  0  0
    3.7320   -7.3895    0.0000 C   0  0  0  0  0  0  0  0  0  0  0  0
   29.4456    4.6343    0.0000 C   0  0  0  0  0  0  0  0  0  0  0  0
    2.8660   -7.8895    0.0000 C   0  0  0  0  0  0  0  0  0  0  0  0
   28.6356    4.0479    0.0000 C   0  0  0  0  0  0  0  0  0  0  0  0
    2.0000   -6.3895    0.0000 C   0  0  0  0  0  0  0  0  0  0  0  0
   12.8337   -3.1146    0.0000 C   0  0  0  0  0  0  0  0  0  0  0  0
   30.3585    4.2260    0.0000 C   0  0  0  0  0  0  0  0  0  0  0  0
   11.9209   -2.7063    0.0000 C   0  0  0  0  0  0  0  0  0  0  0  0
   29.6512    2.6449    0.0000 C   0  0  0  0  0  0  0  0  0  0  0  0
   28.7384    3.0532    0.0000 C   0  0  0  0  0  0  0  0  0  0  0  0
   13.7466   -3.5229    0.0000 C   0  0  3  0  0  0  0  0  0  0  0  0
   30.4613    3.2313    0.0000 C   0  0  0  0  0  0  0  0  0  0  0  0
   13.2421   -2.2018    0.0000 C   0  0  0  0  0  0  0  0  0  0  0  0
   12.4254   -4.0274    0.0000 C   0  0  0  0  0  0  0  0  0  0  0  0
   29.7541    1.6502    0.0000 C   0  0  3  0  0  0  0  0  0  0  0  0
   27.7228    4.4562    0.0000 C   0  0  0  0  0  0  0  0  0  0  0  0
   14.5566   -2.9365    0.0000 C   0  0  0  0  0  0  0  0  0  0  0  0
   30.6669    1.2419    0.0000 C   0  0  0  0  0  0  0  0  0  0  0  0
   29.0468    0.0691    0.0000 C   0  0  0  0  0  0  0  0  0  0  0  0
   28.2368   -0.5173    0.0000 C   0  0  3  0  0  0  0  0  0  0  0  0
   16.2795   -2.7585    0.0000 C   0  0  0  0  0  0  0  0  0  0  0  0
   27.3240   -0.1090    0.0000 C   0  0  0  0  0  0  0  0  0  0  0  0
   17.1923   -3.1668    0.0000 C   0  0  0  0  0  0  0  0  0  0  0  0
   26.5139   -0.6953    0.0000 C   0  0  0  0  0  0  0  0  0  0  0  0
   18.0024   -2.5804    0.0000 C   0  0  0  0  0  0  0  0  0  0  0  0
   25.6011   -0.2870    0.0000 C   0  0  0  0  0  0  0  0  0  0  0  0
   26.6167   -1.6900    0.0000 C   0  0  0  0  0  0  0  0  0  0  0  0
   29.2524   -1.9203    0.0000 C   0  0  0  0  0  0  0  0  0  0  0  0
   24.7910   -0.8734    0.0000 C   0  0  0  0  0  0  0  0  0  0  0  0
   25.8067   -2.2764    0.0000 C   0  0  0  0  0  0  0  0  0  0  0  0
   24.8939   -1.8681    0.0000 C   0  0  0  0  0  0  0  0  0  0  0  0
   19.7252   -2.4023    0.0000 C   0  0  0  0  0  0  0  0  0  0  0  0
   29.3553   -2.9150    0.0000 C   0  0  0  0  0  0  0  0  0  0  0  0
   20.6381   -2.8106    0.0000 C   0  0  0  0  0  0  0  0  0  0  0  0
   23.1710   -2.0462    0.0000 C   0  0  0  0  0  0  0  0  0  0  0  0
   22.3610   -2.6326    0.0000 C   0  0  0  0  0  0  0  0  0  0  0  0
    5.4309   -3.0786    0.0000 H   0  0  0  0  0  0  0  0  0  0  0  0
    4.1220   -3.7713    0.0000 H   0  0  0  0  0  0  0  0  0  0  0  0
   30.6160    6.9569    0.0000 H   0  0  0  0  0  0  0  0  0  0  0  0
    6.4942   -4.1093    0.0000 H   0  0  0  0  0  0  0  0  0  0  0  0
    5.4266   -5.5734    0.0000 H   0  0  0  0  0  0  0  0  0  0  0  0
   28.5188    7.6627    0.0000 H   0  0  0  0  0  0  0  0  0  0  0  0
   28.9862    7.0171    0.0000 H   0  0  0  0  0  0  0  0  0  0  0  0
   31.1309    7.2387    0.0000 H   0  0  0  0  0  0  0  0  0  0  0  0
   31.4564    7.9663    0.0000 H   0  0  0  0  0  0  0  0  0  0  0  0
   28.7636    9.1708    0.0000 H   0  0  0  0  0  0  0  0  0  0  0  0
   28.4381    8.4432    0.0000 H   0  0  0  0  0  0  0  0  0  0  0  0
   31.3757    8.7468    0.0000 H   0  0  0  0  0  0  0  0  0  0  0  0
   30.9083    9.3925    0.0000 H   0  0  0  0  0  0  0  0  0  0  0  0
   30.1920    9.7129    0.0000 H   0  0  0  0  0  0  0  0  0  0  0  0
   29.3992    9.6309    0.0000 H   0  0  0  0  0  0  0  0  0  0  0  0
   30.4237    5.6577    0.0000 H   0  0  0  0  0  0  0  0  0  0  0  0
   30.7491    6.3852    0.0000 H   0  0  0  0  0  0  0  0  0  0  0  0
    7.0999   -2.7271    0.0000 H   0  0  0  0  0  0  0  0  0  0  0  0
    6.3070   -2.8090    0.0000 H   0  0  0  0  0  0  0  0  0  0  0  0
    3.0935   -3.7850    0.0000 H   0  0  0  0  0  0  0  0  0  0  0  0
    5.8819   -6.8895    0.0000 H   0  0  0  0  0  0  0  0  0  0  0  0
    5.8346   -0.4907    0.0000 H   0  0  0  0  0  0  0  0  0  0  0  0
    4.0228   -1.3428    0.0000 H   0  0  0  0  0  0  0  0  0  0  0  0
    1.4631   -6.0795    0.0000 H   0  0  0  0  0  0  0  0  0  0  0  0
   30.8607    4.5895    0.0000 H   0  0  0  0  0  0  0  0  0  0  0  0
   12.2685   -2.1929    0.0000 H   0  0  0  0  0  0  0  0  0  0  0  0
   11.4757   -2.2748    0.0000 H   0  0  0  0  0  0  0  0  0  0  0  0
   13.2444   -3.8865    0.0000 H   0  0  0  0  0  0  0  0  0  0  0  0
   28.2362    2.6896    0.0000 H   0  0  0  0  0  0  0  0  0  0  0  0
    2.3291   -9.1995    0.0000 H   0  0  0  0  0  0  0  0  0  0  0  0
    3.4030   -9.1995    0.0000 H   0  0  0  0  0  0  0  0  0  0  0  0
   31.0272    2.9781    0.0000 H   0  0  0  0  0  0  0  0  0  0  0  0
    8.8084   -4.4384    0.0000 H   0  0  0  0  0  0  0  0  0  0  0  0
   13.8080   -2.4549    0.0000 H   0  0  0  0  0  0  0  0  0  0  0  0
   13.4952   -1.6358    0.0000 H   0  0  0  0  0  0  0  0  0  0  0  0
   12.6761   -1.9486    0.0000 H   0  0  0  0  0  0  0  0  0  0  0  0
   11.8595   -3.7743    0.0000 H   0  0  0  0  0  0  0  0  0  0  0  0
   12.1723   -4.5934    0.0000 H   0  0  0  0  0  0  0  0  0  0  0  0
   12.9914   -4.2806    0.0000 H   0  0  0  0  0  0  0  0  0  0  0  0
   29.1881    1.9034    0.0000 H   0  0  0  0  0  0  0  0  0  0  0  0
   30.4137    0.6759    0.0000 H   0  0  0  0  0  0  0  0  0  0  0  0
   31.2329    0.9887    0.0000 H   0  0  0  0  0  0  0  0  0  0  0  0
   30.9201    1.8078    0.0000 H   0  0  0  0  0  0  0  0  0  0  0  0
   28.3781    1.3170    0.0000 H   0  0  0  0  0  0  0  0  0  0  0  0
   14.4154   -4.7708    0.0000 H   0  0  0  0  0  0  0  0  0  0  0  0
   10.2428   -1.4693    0.0000 H   0  0  0  0  0  0  0  0  0  0  0  0
   15.5332   -3.9616    0.0000 H   0  0  0  0  0  0  0  0  0  0  0  0
   27.0540    5.7041    0.0000 H   0  0  0  0  0  0  0  0  0  0  0  0
   28.1222    5.8145    0.0000 H   0  0  0  0  0  0  0  0  0  0  0  0
   27.7346   -0.8808    0.0000 H   0  0  0  0  0  0  0  0  0  0  0  0
   16.6271   -2.2450    0.0000 H   0  0  0  0  0  0  0  0  0  0  0  0
   15.8342   -2.3270    0.0000 H   0  0  0  0  0  0  0  0  0  0  0  0
   27.6715    0.4044    0.0000 H   0  0  0  0  0  0  0  0  0  0  0  0
   26.8787    0.3225    0.0000 H   0  0  0  0  0  0  0  0  0  0  0  0
   16.8447   -3.6802    0.0000 H   0  0  0  0  0  0  0  0  0  0  0  0
   17.6376   -3.5982    0.0000 H   0  0  0  0  0  0  0  0  0  0  0  0
   27.8374   -1.8755    0.0000 H   0  0  0  0  0  0  0  0  0  0  0  0
   25.5373    0.3297    0.0000 H   0  0  0  0  0  0  0  0  0  0  0  0
   27.1827   -1.9432    0.0000 H   0  0  0  0  0  0  0  0  0  0  0  0
   18.9789   -3.6054    0.0000 H   0  0  0  0  0  0  0  0  0  0  0  0
   25.8704   -2.8932    0.0000 H   0  0  0  0  0  0  0  0  0  0  0  0
   20.0728   -1.8889    0.0000 H   0  0  0  0  0  0  0  0  0  0  0  0
   19.2800   -1.9709    0.0000 H   0  0  0  0  0  0  0  0  0  0  0  0
   28.7385   -2.9787    0.0000 H   0  0  0  0  0  0  0  0  0  0  0  0
   29.4190   -3.5317    0.0000 H   0  0  0  0  0  0  0  0  0  0  0  0
   29.9720   -2.8513    0.0000 H   0  0  0  0  0  0  0  0  0  0  0  0
   20.2905   -3.3240    0.0000 H   0  0  0  0  0  0  0  0  0  0  0  0
   21.0833   -3.2421    0.0000 H   0  0  0  0  0  0  0  0  0  0  0  0
   23.5186   -1.5328    0.0000 H   0  0  0  0  0  0  0  0  0  0  0  0
   22.7257   -1.6147    0.0000 H   0  0  0  0  0  0  0  0  0  0  0  0
   22.9016    0.5599    0.0000 H   0  0  0  0  0  0  0  0  0  0  0  0
   23.9230    0.9500    0.0000 H   0  0  0  0  0  0  0  0  0  0  0  0
  1 88  1  0  0  0  0
  1 90  1  0  0  0  0
  2  7  1  0  0  0  0
  2 11  1  0  0  0  0
  2 12  1  0  0  0  0
  2 13  2  0  0  0  0
  3  9  1  0  0  0  0
  3 14  1  0  0  0  0
  3 15  1  0  0  0  0
  3 16  2  0  0  0  0
  4 14  1  0  0  0  0
  4 17  1  0  0  0  0
  4 19  1  0  0  0  0
  4 20  2  0  0  0  0
  5 27  1  0  0  0  0
  5 28  1  0  0  0  0
  5 29  2  0  0  0  0
  5 83  1  0  0  0  0
  6 44  1  0  0  0  0
  6 45  1  0  0  0  0
  7 41  1  0  0  0  0
  8 42  1  0  0  0  0
  8110  1  0  0  0  0
  9 52  1  0  0  0  0
 10 51  1  0  0  0  0
 10 56  1  0  0  0  0
 11112  1  0  0  0  0
 12113  1  0  0  0  0
 15123  1  0  0  0  0
 17 62  1  0  0  0  0
 18 65  1  0  0  0  0
 18135  1  0  0  0  0
 19136  1  0  0  0  0
 21 70  2  0  0  0  0
 22 71  2  0  0  0  0
 23 73  2  0  0  0  0
 24 79  2  0  0  0  0
 25 85  1  0  0  0  0
 25 89  1  0  0  0  0
 26 82  2  0  0  0  0
 27161  1  0  0  0  0
 28162  1  0  0  0  0
 30 90  2  0  0  0  0
 31 45  1  0  0  0  0
 31 53  1  0  0  0  0
 31 54  1  0  0  0  0
 32 54  2  0  0  0  0
 32 55  1  0  0  0  0
 33 53  2  0  0  0  0
 33 59  1  0  0  0  0
 34 57  1  0  0  0  0
 34 59  2  0  0  0  0
 35 57  1  0  0  0  0
 35120  1  0  0  0  0
 35121  1  0  0  0  0
 36 69  1  0  0  0  0
 36 73  1  0  0  0  0
 36134  1  0  0  0  0
 37 71  1  0  0  0  0
 37 75  1  0  0  0  0
 37137  1  0  0  0  0
 38 70  1  0  0  0  0
 38138  1  0  0  0  0
 38139  1  0  0  0  0
 39 74  1  0  0  0  0
 39 82  1  0  0  0  0
 39147  1  0  0  0  0
 40 79  1  0  0  0  0
 40 86  1  0  0  0  0
 40150  1  0  0  0  0
 41 42  1  0  0  0  0
 41 44  1  0  0  0  0
 41 91  1  0  0  0  0
 42 45  1  0  0  0  0
 42 92  1  0  0  0  0
 43 46  1  0  0  0  0
 43 47  1  0  0  0  0
 43 51  1  0  0  0  0
 43 93  1  0  0  0  0
 44 52  1  0  0  0  0
 44 94  1  0  0  0  0
 45 95  1  0  0  0  0
 46 48  1  0  0  0  0
 46 96  1  0  0  0  0
 46 97  1  0  0  0  0
 47 49  1  0  0  0  0
 47 98  1  0  0  0  0
 47 99  1  0  0  0  0
 48 50  1  0  0  0  0
 48100  1  0  0  0  0
 48101  1  0  0  0  0
 49 50  1  0  0  0  0
 49102  1  0  0  0  0
 49103  1  0  0  0  0
 50104  1  0  0  0  0
 50105  1  0  0  0  0
 51106  1  0  0  0  0
 51107  1  0  0  0  0
 52108  1  0  0  0  0
 52109  1  0  0  0  0
 53 55  1  0  0  0  0
 54111  1  0  0  0  0
 55 57  2  0  0  0  0
 56 58  2  0  0  0  0
 56 61  1  0  0  0  0
 58 64  1  0  0  0  0
 58 70  1  0  0  0  0
 59114  1  0  0  0  0
 60 62  1  0  0  0  0
 60 65  1  0  0  0  0
 60 67  1  0  0  0  0
 60 68  1  0  0  0  0
 61 66  2  0  0  0  0
 61115  1  0  0  0  0
 62116  1  0  0  0  0
 62117  1  0  0  0  0
 63 64  2  0  0  0  0
 63 66  1  0  0  0  0
 63 69  1  0  0  0  0
 64119  1  0  0  0  0
 65 71  1  0  0  0  0
 65118  1  0  0  0  0
 66122  1  0  0  0  0
 67124  1  0  0  0  0
 67125  1  0  0  0  0
 67126  1  0  0  0  0
 68127  1  0  0  0  0
 68128  1  0  0  0  0
 68129  1  0  0  0  0
 69 72  1  0  0  0  0
 69130  1  0  0  0  0
 72131  1  0  0  0  0
 72132  1  0  0  0  0
 72133  1  0  0  0  0
 73 74  1  0  0  0  0
 74 76  1  0  0  0  0
 74140  1  0  0  0  0
 75 77  1  0  0  0  0
 75141  1  0  0  0  0
 75142  1  0  0  0  0
 76 78  1  0  0  0  0
 76143  1  0  0  0  0
 76144  1  0  0  0  0
 77 79  1  0  0  0  0
 77145  1  0  0  0  0
 77146  1  0  0  0  0
 78 80  2  0  0  0  0
 78 81  1  0  0  0  0
 80 83  1  0  0  0  0
 80148  1  0  0  0  0
 81 84  2  0  0  0  0
 81149  1  0  0  0  0
 82 87  1  0  0  0  0
 83 85  2  0  0  0  0
 84 85  1  0  0  0  0
 84151  1  0  0  0  0
 86 88  1  0  0  0  0
 86152  1  0  0  0  0
 86153  1  0  0  0  0
 87154  1  0  0  0  0
 87155  1  0  0  0  0
 87156  1  0  0  0  0
 88157  1  0  0  0  0
 88158  1  0  0  0  0
 89 90  1  0  0  0  0
 89159  1  0  0  0  0
 89160  1  0  0  0  0
M  END
> <PUBCHEM_COMPOUND_CID>
155489479

> <PUBCHEM_COMPOUND_CANONICALIZED>
1

> <PUBCHEM_CACTVS_COMPLEXITY>
2650

> <PUBCHEM_CACTVS_HBOND_ACCEPTOR>
30

> <PUBCHEM_CACTVS_HBOND_DONOR>
14

> <PUBCHEM_CACTVS_ROTATABLE_BOND>
34

> <PUBCHEM_CACTVS_SUBSKEYS>
AAADcfB//gPAAAAAAAAAAAAAAAAAAWJAAAA8YMEAAAAAAFgB/AAAHgwQCCAADzzl3wa39r/MFxioQydzdIKCiC01MLAJ2KHuXNiPfj7E/X+efWjv9hP7qaf6+eOfIAACAAAIAABAAAQAABAAAAAAAAAAAA==

> <PUBCHEM_IUPAC_OPENEYE_NAME>
[5-[2-acetamido-3-[1-[3-carbamoyl-4-(cyclohexylmethoxy)phenyl]ethylamino]-3-oxo-propyl]-2-[2-[2-[3-[[4-[[[5-(6-aminopurin-9-yl)-4-hydroxy-3-phosphonooxy-tetrahydrofuran-2-yl]methoxy-hydroxy-phosphoryl]oxy-hydroxy-phosphoryl]oxy-2-hydroxy-3,3-dimethyl-butanoyl]amino]propanoylamino]ethylsulfanyl]-2-oxo-ethoxy]phenyl]phosphonic acid

> <PUBCHEM_IUPAC_CAS_NAME>
[5-[2-acetamido-3-[1-[3-carbamoyl-4-(cyclohexylmethoxy)phenyl]ethylamino]-3-oxopropyl]-2-[2-[2-[[3-[[4-[[[5-(6-aminopurin-9-yl)-4-hydroxy-3-phosphonooxy-2-oxolanyl]methoxy-hydroxyphosphoryl]oxy-hydroxyphosphoryl]oxy-2-hydroxy-3,3-dimethyl-1-oxobutyl]amino]-1-oxopropyl]amino]ethylthio]-2-oxoethoxy]phenyl]phosphonic acid

> <PUBCHEM_IUPAC_NAME_MARKUP>
[5-[2-acetamido-3-[1-[3-carbamoyl-4-(cyclohexylmethoxy)phenyl]ethylamino]-3-oxopropyl]-2-[2-[2-[3-[[4-[[[5-(6-aminopurin-9-yl)-4-hydroxy-3-phosphonooxyoxolan-2-yl]methoxy-hydroxyphosphoryl]oxy-hydroxyphosphoryl]oxy-2-hydroxy-3,3-dimethylbutanoyl]amino]propanoylamino]ethylsulfanyl]-2-oxoethoxy]phenyl]phosphonic acid

> <PUBCHEM_IUPAC_NAME>
[5-[2-acetamido-3-[1-[3-carbamoyl-4-(cyclohexylmethoxy)phenyl]ethylamino]-3-oxopropyl]-2-[2-[2-[3-[[4-[[[5-(6-aminopurin-9-yl)-4-hydroxy-3-phosphonooxyoxolan-2-yl]methoxy-hydroxyphosphoryl]oxy-hydroxyphosphoryl]oxy-2-hydroxy-3,3-dimethylbutanoyl]amino]propanoylamino]ethylsulfanyl]-2-oxoethoxy]phenyl]phosphonic acid

> <PUBCHEM_IUPAC_SYSTEMATIC_NAME>
[5-[2-acetamido-3-[1-[3-aminocarbonyl-4-(cyclohexylmethoxy)phenyl]ethylamino]-3-oxidanylidene-propyl]-2-[2-[2-[3-[[4-[[[5-(6-aminopurin-9-yl)-4-oxidanyl-3-phosphonooxy-oxolan-2-yl]methoxy-oxidanyl-phosphoryl]oxy-oxidanyl-phosphoryl]oxy-3,3-dimethyl-2-oxidanyl-butanoyl]amino]propanoylamino]ethylsulfanyl]-2-oxidanylidene-ethoxy]phenyl]phosphonic acid

> <PUBCHEM_IUPAC_TRADITIONAL_NAME>
[5-[2-acetamido-3-[1-[3-carbamoyl-4-(cyclohexylmethoxy)phenyl]ethylamino]-3-keto-propyl]-2-[2-[2-[3-[[4-[[(5-adenin-9-yl-4-hydroxy-3-phosphonooxy-tetrahydrofuran-2-yl)methoxy-hydroxy-phosphoryl]oxy-hydroxy-phosphoryl]oxy-2-hydroxy-3,3-dimethyl-butanoyl]amino]propanoylamino]ethylthio]-2-keto-ethoxy]phenyl]phosphonic acid

> <PUBCHEM_IUPAC_INCHI>
InChI=1S/C50H72N10O25P4S/c1-27(31-11-13-34(32(20-31)45(52)66)79-21-29-8-6-5-7-9-29)58-47(67)33(59-28(2)61)18-30-10-12-35(37(19-30)86(69,70)71)80-23-39(63)90-17-16-53-38(62)14-15-54-48(68)43(65)50(3,4)24-82-89(77,78)85-88(75,76)81-22-36-42(84-87(72,73)74)41(64)49(83-36)60-26-57-40-44(51)55-25-56-46(40)60/h10-13,19-20,25-27,29,33,36,41-43,49,64-65H,5-9,14-18,21-24H2,1-4H3,(H2,52,66)(H,53,62)(H,54,68)(H,58,67)(H,59,61)(H,75,76)(H,77,78)(H2,51,55,56)(H2,69,70,71)(H2,72,73,74)

> <PUBCHEM_IUPAC_INCHIKEY>
SKXWNYGCHRAXGY-UHFFFAOYSA-N

> <PUBCHEM_XLOGP3_AA>
-3.8

> <PUBCHEM_EXACT_MASS>
1368.33412698

> <PUBCHEM_MOLECULAR_FORMULA>
C50H72N10O25P4S

> <PUBCHEM_MOLECULAR_WEIGHT>
1369.1

> <PUBCHEM_OPENEYE_CAN_SMILES>
CC(C1=CC(=C(C=C1)OCC2CCCCC2)C(=O)N)NC(=O)C(CC3=CC(=C(C=C3)OCC(=O)SCCNC(=O)CCNC(=O)C(C(C)(C)COP(=O)(O)OP(=O)(O)OCC4C(C(C(O4)N5C=NC6=C(N=CN=C65)N)O)OP(=O)(O)O)O)P(=O)(O)O)NC(=O)C

> <PUBCHEM_OPENEYE_ISO_SMILES>
CC(C1=CC(=C(C=C1)OCC2CCCCC2)C(=O)N)NC(=O)C(CC3=CC(=C(C=C3)OCC(=O)SCCNC(=O)CCNC(=O)C(C(C)(C)COP(=O)(O)OP(=O)(O)OCC4C(C(C(O4)N5C=NC6=C(N=CN=C65)N)O)OP(=O)(O)O)O)P(=O)(O)O)NC(=O)C

> <PUBCHEM_CACTVS_TPSA>
566

> <PUBCHEM_MONOISOTOPIC_WEIGHT>
1368.33412698

> <PUBCHEM_TOTAL_CHARGE>
0

> <PUBCHEM_HEAVY_ATOM_COUNT>
90

> <PUBCHEM_ATOM_DEF_STEREO_COUNT>
0

> <PUBCHEM_ATOM_UDEF_STEREO_COUNT>
7

> <PUBCHEM_BOND_DEF_STEREO_COUNT>
0

> <PUBCHEM_BOND_UDEF_STEREO_COUNT>
0

> <PUBCHEM_ISOTOPIC_ATOM_COUNT>
0

> <PUBCHEM_COMPONENT_COUNT>
1

> <PUBCHEM_CACTVS_TAUTO_COUNT>
-1

> <PUBCHEM_COORDINATE_TYPE>
1
5
255

> <PUBCHEM_BONDANNOTATIONS>
65  18  3
45  31  3
31  53  8
31  54  8
32  54  8
32  55  8
33  53  8
33  59  8
34  57  8
34  59  8
44  52  3
53  55  8
55  57  8
56  58  8
56  61  8
58  64  8
61  66  8
63  64  8
63  66  8
69  72  3
41  7  3
74  76  3
78  80  8
78  81  8
42  8  3
80  83  8
81  84  8
83  85  8
84  85  8

$$$$
155489492
  -OEChem-03012215082D

118123  0     1  0  0  0  0  0999 V2000
   20.1440    9.0416    0.0000 Br   0  0  0  0  0  0  0  0  0  0  0  0
   11.4178    9.0174    0.0000 Cl   0  0  0  0  0  0  0  0  0  0  0  0
   14.0819    6.5416    0.0000 S    0  0  0  0  0  0  0  0  0  0  0  0
    4.2151   -5.2646    0.0000 P    0  0  0  0  0  0  0  0  0  0  0  0
    8.0197   -4.9584    0.0000 P    0  0  3  0  0  0  0  0  0  0  0  0
    8.8857   -3.4584    0.0000 P    0  0  3  0  0  0  0  0  0  0  0  0
   18.4120   12.0415    0.0000 F    0  0  0  0  0  0  0  0  0  0  0  0
    6.1831   -7.9530    0.0000 O    0  0  0  0  0  0  0  0  0  0  0  0
    5.1662   -5.5736    0.0000 O    0  0  0  0  0  0  0  0  0  0  0  0
    3.7104   -7.1903    0.0000 O    0  0  0  0  0  0  0  0  0  0  0  0
    7.1536   -5.4584    0.0000 O    0  0  0  0  0  0  0  0  0  0  0  0
    3.2641   -4.9555    0.0000 O    0  0  0  0  0  0  0  0  0  0  0  0
    4.5241   -4.3135    0.0000 O    0  0  0  0  0  0  0  0  0  0  0  0
    8.8857   -4.4584    0.0000 O    0  0  0  0  0  0  0  0  0  0  0  0
    3.9061   -6.2156    0.0000 O    0  0  0  0  0  0  0  0  0  0  0  0
    8.8857   -2.4584    0.0000 O    0  0  0  0  0  0  0  0  0  0  0  0
    8.5197   -5.8245    0.0000 O    0  0  0  0  0  0  0  0  0  0  0  0
    7.5197   -4.0924    0.0000 O    0  0  0  0  0  0  0  0  0  0  0  0
    8.8857    0.5415    0.0000 O    0  0  0  0  0  0  0  0  0  0  0  0
    7.8857   -3.4584    0.0000 O    0  0  0  0  0  0  0  0  0  0  0  0
    9.8857   -3.4584    0.0000 O    0  0  0  0  0  0  0  0  0  0  0  0
   11.4838    0.0415    0.0000 O    0  0  0  0  0  0  0  0  0  0  0  0
   13.2158    3.0416    0.0000 O    0  0  0  0  0  0  0  0  0  0  0  0
   16.6799    9.0416    0.0000 O    0  0  0  0  0  0  0  0  0  0  0  0
   14.9479   12.0415    0.0000 O    0  0  0  0  0  0  0  0  0  0  0  0
   13.2158    8.0416    0.0000 O    0  0  0  0  0  0  0  0  0  0  0  0
    4.7982   -9.0744    0.0000 N    0  0  0  0  0  0  0  0  0  0  0  0
    4.6328  -10.6754    0.0000 N    0  0  0  0  0  0  0  0  0  0  0  0
    3.0156   -8.6939    0.0000 N    0  0  0  0  0  0  0  0  0  0  0  0
    2.0000  -10.0969    0.0000 N    0  0  0  0  0  0  0  0  0  0  0  0
    2.7072  -11.6780    0.0000 N    0  0  0  0  0  0  0  0  0  0  0  0
   10.6178    1.5416    0.0000 N    0  0  0  0  0  0  0  0  0  0  0  0
   14.9479    9.0416    0.0000 N    0  0  0  0  0  0  0  0  0  0  0  0
   15.8139   10.5415    0.0000 N    0  0  0  0  0  0  0  0  0  0  0  0
   12.3498    4.5416    0.0000 N    0  0  0  0  0  0  0  0  0  0  0  0
    5.3741   -6.5517    0.0000 C    0  0  3  0  0  0  0  0  0  0  0  0
    4.7050   -7.2949    0.0000 C    0  0  3  0  0  0  0  0  0  0  0  0
    6.2876   -6.9584    0.0000 C    0  0  3  0  0  0  0  0  0  0  0  0
    5.2050   -8.1609    0.0000 C    0  0  3  0  0  0  0  0  0  0  0  0
    7.1536   -6.4584    0.0000 C    0  0  0  0  0  0  0  0  0  0  0  0
    3.8257   -9.2803    0.0000 C    0  0  0  0  0  0  0  0  0  0  0  0
    5.2960   -9.9349    0.0000 C    0  0  0  0  0  0  0  0  0  0  0  0
    3.7229  -10.2750    0.0000 C    0  0  0  0  0  0  0  0  0  0  0  0
    9.7517   -0.9585    0.0000 C    0  0  0  0  0  0  0  0  0  0  0  0
    2.8100  -10.6833    0.0000 C    0  0  0  0  0  0  0  0  0  0  0  0
    9.7517    0.0415    0.0000 C    0  0  3  0  0  0  0  0  0  0  0  0
    9.7517   -1.9584    0.0000 C    0  0  0  0  0  0  0  0  0  0  0  0
    2.1028   -9.1022    0.0000 C    0  0  0  0  0  0  0  0  0  0  0  0
    8.7517   -0.9585    0.0000 C    0  0  0  0  0  0  0  0  0  0  0  0
   10.7517   -0.9585    0.0000 C    0  0  0  0  0  0  0  0  0  0  0  0
   10.6178    0.5415    0.0000 C    0  0  0  0  0  0  0  0  0  0  0  0
   11.4838    2.0416    0.0000 C    0  0  0  0  0  0  0  0  0  0  0  0
   11.4838    3.0416    0.0000 C    0  0  0  0  0  0  0  0  0  0  0  0
   12.3498    3.5416    0.0000 C    0  0  0  0  0  0  0  0  0  0  0  0
   14.0819    9.5416    0.0000 C    0  0  0  0  0  0  0  0  0  0  0  0
   14.0819   10.5415    0.0000 C    0  0  0  0  0  0  0  0  0  0  0  0
   15.8139    9.5416    0.0000 C    0  0  0  0  0  0  0  0  0  0  0  0
   16.6799   11.0415    0.0000 C    0  0  0  0  0  0  0  0  0  0  0  0
   14.9479    8.0416    0.0000 C    0  0  0  0  0  0  0  0  0  0  0  0
   14.9479   11.0415    0.0000 C    0  0  0  0  0  0  0  0  0  0  0  0
   13.2158    5.0416    0.0000 C    0  0  0  0  0  0  0  0  0  0  0  0
   13.1879    9.0069    0.0000 C    0  0  0  0  0  0  0  0  0  0  0  0
   13.2158    6.0416    0.0000 C    0  0  0  0  0  0  0  0  0  0  0  0
   13.1879   11.0762    0.0000 C    0  0  0  0  0  0  0  0  0  0  0  0
   17.5460   10.5415    0.0000 C    0  0  0  0  0  0  0  0  0  0  0  0
   14.0819    7.5416    0.0000 C    0  0  0  0  0  0  0  0  0  0  0  0
   12.2818    9.5207    0.0000 C    0  0  0  0  0  0  0  0  0  0  0  0
   12.2818   10.5624    0.0000 C    0  0  0  0  0  0  0  0  0  0  0  0
   18.4120   11.0415    0.0000 C    0  0  0  0  0  0  0  0  0  0  0  0
   17.5460    9.5416    0.0000 C    0  0  0  0  0  0  0  0  0  0  0  0
   19.2780   10.5415    0.0000 C    0  0  0  0  0  0  0  0  0  0  0  0
   18.4120    9.0416    0.0000 C    0  0  0  0  0  0  0  0  0  0  0  0
   19.2780    9.5416    0.0000 C    0  0  0  0  0  0  0  0  0  0  0  0
    5.8559   -6.1615    0.0000 H    0  0  0  0  0  0  0  0  0  0  0  0
    4.4828   -6.7160    0.0000 H    0  0  0  0  0  0  0  0  0  0  0  0
    6.8076   -7.2961    0.0000 H    0  0  0  0  0  0  0  0  0  0  0  0
    4.5858   -8.1933    0.0000 H    0  0  0  0  0  0  0  0  0  0  0  0
    7.3657   -7.0411    0.0000 H    0  0  0  0  0  0  0  0  0  0  0  0
    7.7642   -6.3508    0.0000 H    0  0  0  0  0  0  0  0  0  0  0  0
    3.4582   -6.6239    0.0000 H    0  0  0  0  0  0  0  0  0  0  0  0
    5.9127   -9.9986    0.0000 H    0  0  0  0  0  0  0  0  0  0  0  0
    9.7517    0.6615    0.0000 H    0  0  0  0  0  0  0  0  0  0  0  0
    9.9638   -2.5411    0.0000 H    0  0  0  0  0  0  0  0  0  0  0  0
   10.3623   -1.8508    0.0000 H    0  0  0  0  0  0  0  0  0  0  0  0
    3.1352   -4.3491    0.0000 H    0  0  0  0  0  0  0  0  0  0  0  0
    4.1093   -3.8527    0.0000 H    0  0  0  0  0  0  0  0  0  0  0  0
    8.7517   -0.3385    0.0000 H    0  0  0  0  0  0  0  0  0  0  0  0
    8.1317   -0.9585    0.0000 H    0  0  0  0  0  0  0  0  0  0  0  0
    8.7517   -1.5784    0.0000 H    0  0  0  0  0  0  0  0  0  0  0  0
   10.7517   -1.5784    0.0000 H    0  0  0  0  0  0  0  0  0  0  0  0
   11.3717   -0.9585    0.0000 H    0  0  0  0  0  0  0  0  0  0  0  0
   10.7517   -0.3385    0.0000 H    0  0  0  0  0  0  0  0  0  0  0  0
    1.6006   -8.7386    0.0000 H    0  0  0  0  0  0  0  0  0  0  0  0
    9.1397   -5.8245    0.0000 H    0  0  0  0  0  0  0  0  0  0  0  0
    2.1413  -11.9311    0.0000 H    0  0  0  0  0  0  0  0  0  0  0  0
    3.2094  -12.0415    0.0000 H    0  0  0  0  0  0  0  0  0  0  0  0
    8.3488    0.2315    0.0000 H    0  0  0  0  0  0  0  0  0  0  0  0
   10.0808    1.8516    0.0000 H    0  0  0  0  0  0  0  0  0  0  0  0
   11.6958    1.4589    0.0000 H    0  0  0  0  0  0  0  0  0  0  0  0
   12.0944    2.1492    0.0000 H    0  0  0  0  0  0  0  0  0  0  0  0
    7.5757   -2.9215    0.0000 H    0  0  0  0  0  0  0  0  0  0  0  0
   11.2717    3.6242    0.0000 H    0  0  0  0  0  0  0  0  0  0  0  0
   10.8732    2.9339    0.0000 H    0  0  0  0  0  0  0  0  0  0  0  0
   11.8129    4.8515    0.0000 H    0  0  0  0  0  0  0  0  0  0  0  0
   17.0785   11.5165    0.0000 H    0  0  0  0  0  0  0  0  0  0  0  0
   16.2814   11.5165    0.0000 H    0  0  0  0  0  0  0  0  0  0  0  0
   15.1599    7.4589    0.0000 H    0  0  0  0  0  0  0  0  0  0  0  0
   15.5585    8.1492    0.0000 H    0  0  0  0  0  0  0  0  0  0  0  0
   13.4279    4.4589    0.0000 H    0  0  0  0  0  0  0  0  0  0  0  0
   13.8264    5.1492    0.0000 H    0  0  0  0  0  0  0  0  0  0  0  0
   13.1951    8.3869    0.0000 H    0  0  0  0  0  0  0  0  0  0  0  0
   13.0038    6.6242    0.0000 H    0  0  0  0  0  0  0  0  0  0  0  0
   12.6053    5.9339    0.0000 H    0  0  0  0  0  0  0  0  0  0  0  0
   13.1951   11.6962    0.0000 H    0  0  0  0  0  0  0  0  0  0  0  0
   11.7461   10.8744    0.0000 H    0  0  0  0  0  0  0  0  0  0  0  0
   17.0090    9.2316    0.0000 H    0  0  0  0  0  0  0  0  0  0  0  0
   19.8149   10.8515    0.0000 H    0  0  0  0  0  0  0  0  0  0  0  0
   18.4120    8.4216    0.0000 H    0  0  0  0  0  0  0  0  0  0  0  0
  1 73  1  0  0  0  0
  2 67  1  0  0  0  0
  3 63  1  0  0  0  0
  3 66  1  0  0  0  0
  4  9  1  0  0  0  0
  4 12  1  0  0  0  0
  4 13  1  0  0  0  0
  4 15  2  0  0  0  0
  5 11  1  0  0  0  0
  5 14  1  0  0  0  0
  5 17  1  0  0  0  0
  5 18  2  0  0  0  0
  6 14  1  0  0  0  0
  6 16  1  0  0  0  0
  6 20  1  0  0  0  0
  6 21  2  0  0  0  0
  7 69  1  0  0  0  0
  8 38  1  0  0  0  0
  8 39  1  0  0  0  0
  9 36  1  0  0  0  0
 10 37  1  0  0  0  0
 10 80  1  0  0  0  0
 11 40  1  0  0  0  0
 12 85  1  0  0  0  0
 13 86  1  0  0  0  0
 16 47  1  0  0  0  0
 17 94  1  0  0  0  0
 19 46  1  0  0  0  0
 19 97  1  0  0  0  0
 20101  1  0  0  0  0
 22 51  2  0  0  0  0
 23 54  2  0  0  0  0
 24 57  2  0  0  0  0
 25 60  2  0  0  0  0
 26 66  2  0  0  0  0
 27 39  1  0  0  0  0
 27 41  1  0  0  0  0
 27 42  1  0  0  0  0
 28 42  2  0  0  0  0
 28 43  1  0  0  0  0
 29 41  2  0  0  0  0
 29 48  1  0  0  0  0
 30 45  1  0  0  0  0
 30 48  2  0  0  0  0
 31 45  1  0  0  0  0
 31 95  1  0  0  0  0
 31 96  1  0  0  0  0
 32 51  1  0  0  0  0
 32 52  1  0  0  0  0
 32 98  1  0  0  0  0
 33 55  1  0  0  0  0
 33 57  1  0  0  0  0
 33 59  1  0  0  0  0
 34 57  1  0  0  0  0
 34 58  1  0  0  0  0
 34 60  1  0  0  0  0
 35 54  1  0  0  0  0
 35 61  1  0  0  0  0
 35104  1  0  0  0  0
 36 37  1  0  0  0  0
 36 38  1  0  0  0  0
 36 74  1  0  0  0  0
 37 39  1  0  0  0  0
 37 75  1  0  0  0  0
 38 40  1  0  0  0  0
 38 76  1  0  0  0  0
 39 77  1  0  0  0  0
 40 78  1  0  0  0  0
 40 79  1  0  0  0  0
 41 43  1  0  0  0  0
 42 81  1  0  0  0  0
 43 45  2  0  0  0  0
 44 46  1  0  0  0  0
 44 47  1  0  0  0  0
 44 49  1  0  0  0  0
 44 50  1  0  0  0  0
 46 51  1  0  0  0  0
 46 82  1  0  0  0  0
 47 83  1  0  0  0  0
 47 84  1  0  0  0  0
 48 93  1  0  0  0  0
 49 87  1  0  0  0  0
 49 88  1  0  0  0  0
 49 89  1  0  0  0  0
 50 90  1  0  0  0  0
 50 91  1  0  0  0  0
 50 92  1  0  0  0  0
 52 53  1  0  0  0  0
 52 99  1  0  0  0  0
 52100  1  0  0  0  0
 53 54  1  0  0  0  0
 53102  1  0  0  0  0
 53103  1  0  0  0  0
 55 56  2  0  0  0  0
 55 62  1  0  0  0  0
 56 60  1  0  0  0  0
 56 64  1  0  0  0  0
 58 65  1  0  0  0  0
 58105  1  0  0  0  0
 58106  1  0  0  0  0
 59 66  1  0  0  0  0
 59107  1  0  0  0  0
 59108  1  0  0  0  0
 61 63  1  0  0  0  0
 61109  1  0  0  0  0
 61110  1  0  0  0  0
 62 67  2  0  0  0  0
 62111  1  0  0  0  0
 63112  1  0  0  0  0
 63113  1  0  0  0  0
 64 68  2  0  0  0  0
 64114  1  0  0  0  0
 65 69  2  0  0  0  0
 65 70  1  0  0  0  0
 67 68  1  0  0  0  0
 68115  1  0  0  0  0
 69 71  1  0  0  0  0
 70 72  2  0  0  0  0
 70116  1  0  0  0  0
 71 73  2  0  0  0  0
 71117  1  0  0  0  0
 72 73  1  0  0  0  0
 72118  1  0  0  0  0
M  END
> <PUBCHEM_COMPOUND_CID>
155489492

> <PUBCHEM_COMPOUND_CANONICALIZED>
1

> <PUBCHEM_CACTVS_COMPLEXITY>
2160

> <PUBCHEM_CACTVS_HBOND_ACCEPTOR>
25

> <PUBCHEM_CACTVS_HBOND_DONOR>
9

> <PUBCHEM_CACTVS_ROTATABLE_BOND>
24

> <PUBCHEM_CACTVS_SUBSKEYS>
AAADcfB//wNEEAAAAAAAAAAAAAAAAWJAAAA8eIEAAAAAAFix/AAAHwZQCCABrh7l3y638L/MFxioQydzdIKCgC01F7QJ2KHodviLeDrB3/GeZYhvlyL7y/f6uAKPBgAAAAICAAAMAAAABAQAAAAAAAAAAA==

> <PUBCHEM_IUPAC_OPENEYE_NAME>
S-[2-[3-[[4-[[[5-(6-aminopurin-9-yl)-4-hydroxy-3-phosphonooxy-tetrahydrofuran-2-yl]methoxy-hydroxy-phosphoryl]oxy-hydroxy-phosphoryl]oxy-2-hydroxy-3,3-dimethyl-butanoyl]amino]propanoylamino]ethyl] 2-[3-[(4-bromo-2-fluoro-phenyl)methyl]-7-chloro-2,4-dioxo-quinazolin-1-yl]ethanethioate

> <PUBCHEM_IUPAC_CAS_NAME>
2-[3-[(4-bromo-2-fluorophenyl)methyl]-7-chloro-2,4-dioxo-1-quinazolinyl]ethanethioic acid S-[2-[[3-[[4-[[[5-(6-aminopurin-9-yl)-4-hydroxy-3-phosphonooxy-2-oxolanyl]methoxy-hydroxyphosphoryl]oxy-hydroxyphosphoryl]oxy-2-hydroxy-3,3-dimethyl-1-oxobutyl]amino]-1-oxopropyl]amino]ethyl] ester

> <PUBCHEM_IUPAC_NAME_MARKUP>
<I>S</I>-[2-[3-[[4-[[[5-(6-aminopurin-9-yl)-4-hydroxy-3-phosphonooxyoxolan-2-yl]methoxy-hydroxyphosphoryl]oxy-hydroxyphosphoryl]oxy-2-hydroxy-3,3-dimethylbutanoyl]amino]propanoylamino]ethyl] 2-[3-[(4-bromo-2-fluorophenyl)methyl]-7-chloro-2,4-dioxoquinazolin-1-yl]ethanethioate

> <PUBCHEM_IUPAC_NAME>
S-[2-[3-[[4-[[[5-(6-aminopurin-9-yl)-4-hydroxy-3-phosphonooxyoxolan-2-yl]methoxy-hydroxyphosphoryl]oxy-hydroxyphosphoryl]oxy-2-hydroxy-3,3-dimethylbutanoyl]amino]propanoylamino]ethyl] 2-[3-[(4-bromo-2-fluorophenyl)methyl]-7-chloro-2,4-dioxoquinazolin-1-yl]ethanethioate

> <PUBCHEM_IUPAC_SYSTEMATIC_NAME>
S-[2-[3-[[4-[[[5-(6-aminopurin-9-yl)-4-oxidanyl-3-phosphonooxy-oxolan-2-yl]methoxy-oxidanyl-phosphoryl]oxy-oxidanyl-phosphoryl]oxy-3,3-dimethyl-2-oxidanyl-butanoyl]amino]propanoylamino]ethyl] 2-[3-[(4-bromanyl-2-fluoranyl-phenyl)methyl]-7-chloranyl-2,4-bis(oxidanylidene)quinazolin-1-yl]ethanethioate

> <PUBCHEM_IUPAC_TRADITIONAL_NAME>
2-[3-(4-bromo-2-fluoro-benzyl)-7-chloro-2,4-diketo-quinazolin-1-yl]ethanethioic acid S-[2-[3-[[4-[[(5-adenin-9-yl-4-hydroxy-3-phosphonooxy-tetrahydrofuran-2-yl)methoxy-hydroxy-phosphoryl]oxy-hydroxy-phosphoryl]oxy-2-hydroxy-3,3-dimethyl-butanoyl]amino]propanoylamino]ethyl] ester

> <PUBCHEM_IUPAC_INCHI>
InChI=1S/C38H45BrClFN9O19P3S/c1-38(2,16-66-72(63,64)69-71(61,62)65-15-25-30(68-70(58,59)60)29(53)36(67-25)50-18-47-28-32(42)45-17-46-33(28)50)31(54)34(55)44-8-7-26(51)43-9-10-73-27(52)14-48-24-12-21(40)5-6-22(24)35(56)49(37(48)57)13-19-3-4-20(39)11-23(19)41/h3-6,11-12,17-18,25,29-31,36,53-54H,7-10,13-16H2,1-2H3,(H,43,51)(H,44,55)(H,61,62)(H,63,64)(H2,42,45,46)(H2,58,59,60)

> <PUBCHEM_IUPAC_INCHIKEY>
STEGQCPAGUYJGG-UHFFFAOYSA-N

> <PUBCHEM_XLOGP3_AA>
-2.1

> <PUBCHEM_EXACT_MASS>
1189.06212

> <PUBCHEM_MOLECULAR_FORMULA>
C38H45BrClFN9O19P3S

> <PUBCHEM_MOLECULAR_WEIGHT>
1191.2

> <PUBCHEM_OPENEYE_CAN_SMILES>
CC(C)(COP(=O)(O)OP(=O)(O)OCC1C(C(C(O1)N2C=NC3=C(N=CN=C32)N)O)OP(=O)(O)O)C(C(=O)NCCC(=O)NCCSC(=O)CN4C5=C(C=CC(=C5)Cl)C(=O)N(C4=O)CC6=C(C=C(C=C6)Br)F)O

> <PUBCHEM_OPENEYE_ISO_SMILES>
CC(C)(COP(=O)(O)OP(=O)(O)OCC1C(C(C(O1)N2C=NC3=C(N=CN=C32)N)O)OP(=O)(O)O)C(C(=O)NCCC(=O)NCCSC(=O)CN4C5=C(C=CC(=C5)Cl)C(=O)N(C4=O)CC6=C(C=C(C=C6)Br)F)O

> <PUBCHEM_CACTVS_TPSA>
430

> <PUBCHEM_MONOISOTOPIC_WEIGHT>
1189.06212

> <PUBCHEM_TOTAL_CHARGE>
0

> <PUBCHEM_HEAVY_ATOM_COUNT>
73

> <PUBCHEM_ATOM_DEF_STEREO_COUNT>
0

> <PUBCHEM_ATOM_UDEF_STEREO_COUNT>
5

> <PUBCHEM_BOND_DEF_STEREO_COUNT>
0

> <PUBCHEM_BOND_UDEF_STEREO_COUNT>
0

> <PUBCHEM_ISOTOPIC_ATOM_COUNT>
0

> <PUBCHEM_COMPONENT_COUNT>
1

> <PUBCHEM_CACTVS_TAUTO_COUNT>
-1

> <PUBCHEM_COORDINATE_TYPE>
1
5
255

> <PUBCHEM_BONDANNOTATIONS>
37  10  3
46  19  3
39  27  3
27  41  8
27  42  8
28  42  8
28  43  8
29  41  8
29  48  8
30  45  8
30  48  8
33  55  8
33  57  8
34  57  8
34  60  8
38  40  3
41  43  8
43  45  8
55  56  8
55  62  8
56  60  8
56  64  8
62  67  8
64  68  8
65  69  8
65  70  8
67  68  8
69  71  8
70  72  8
71  73  8
72  73  8
36  9  3

$$$$
155489514
  -OEChem-03012215082D

125128  0     1  0  0  0  0  0999 V2000
    7.8667    5.2349    0.0000 S   0  0  0  0  0  0  0  0  0  0  0  0
   21.0909   -3.9454    0.0000 P   0  0  0  0  0  0  0  0  0  0  0  0
   17.8406   -3.1030    0.0000 P   0  0  3  0  0  0  0  0  0  0  0  0
   16.5554   -1.9418    0.0000 P   0  0  3  0  0  0  0  0  0  0  0  0
   18.8439   -6.0238    0.0000 O   0  0  0  0  0  0  0  0  0  0  0  0
    5.6038    6.6057    0.0000 O   0  0  0  0  0  0  0  0  0  0  0  0
   21.1937   -4.9401    0.0000 O   0  0  0  0  0  0  0  0  0  0  0  0
   21.1899   -7.1157    0.0000 O   0  0  0  0  0  0  0  0  0  0  0  0
   18.1480   -4.0546    0.0000 O   0  0  0  0  0  0  0  0  0  0  0  0
    4.0113    8.7185    0.0000 O   0  0  0  0  0  0  0  0  0  0  0  0
    6.2185    4.7025    0.0000 O   0  0  0  0  0  0  0  0  0  0  0  0
   20.9881   -2.9507    0.0000 O   0  0  0  0  0  0  0  0  0  0  0  0
   22.0856   -3.8426    0.0000 O   0  0  0  0  0  0  0  0  0  0  0  0
   17.5332   -2.1514    0.0000 O   0  0  0  0  0  0  0  0  0  0  0  0
   20.0962   -4.0482    0.0000 O   0  0  0  0  0  0  0  0  0  0  0  0
    6.8206   10.5361    0.0000 O   0  0  0  0  0  0  0  0  0  0  0  0
   16.8890   -3.4104    0.0000 O   0  0  0  0  0  0  0  0  0  0  0  0
   15.5777   -1.7322    0.0000 O   0  0  0  0  0  0  0  0  0  0  0  0
   18.7922   -2.7957    0.0000 O   0  0  0  0  0  0  0  0  0  0  0  0
   12.6443   -1.1034    0.0000 O   0  0  0  0  0  0  0  0  0  0  0  0
   16.7651   -0.9640    0.0000 O   0  0  0  0  0  0  0  0  0  0  0  0
   16.3458   -2.9196    0.0000 O   0  0  0  0  0  0  0  0  0  0  0  0
   13.6778    1.3321    0.0000 O   0  0  0  0  0  0  0  0  0  0  0  0
   11.1074    3.6545    0.0000 O   0  0  0  0  0  0  0  0  0  0  0  0
   19.1197   -7.7844    0.0000 N   0  0  0  0  0  0  0  0  0  0  0  0
    5.6594    9.2509    0.0000 N   0  0  0  0  0  0  0  0  0  0  0  0
    7.6150    8.8317    0.0000 N   0  0  0  0  0  0  0  0  0  0  0  0
    3.6482    7.0249    0.0000 N   0  0  0  0  0  0  0  0  0  0  0  0
   19.1197   -9.3938    0.0000 N   0  0  0  0  0  0  0  0  0  0  0  0
   17.3074   -7.5891    0.0000 N   0  0  0  0  0  0  0  0  0  0  0  0
   16.4414   -9.0891    0.0000 N   0  0  0  0  0  0  0  0  0  0  0  0
   17.3074  -10.5891    0.0000 N   0  0  0  0  0  0  0  0  0  0  0  0
   12.0296    0.7998    0.0000 N   0  0  0  0  0  0  0  0  0  0  0  0
    9.4593    3.1222    0.0000 N   0  0  0  0  0  0  0  0  0  0  0  0
   20.3837   -5.5265    0.0000 C   0  0  3  0  0  0  0  0  0  0  0  0
   20.3819   -6.5265    0.0000 C   0  0  3  0  0  0  0  0  0  0  0  0
   19.4331   -5.2158    0.0000 C   0  0  3  0  0  0  0  0  0  0  0  0
   19.4303   -6.8338    0.0000 C   0  0  3  0  0  0  0  0  0  0  0  0
    5.9668    8.2993    0.0000 C   0  0  3  0  0  0  0  0  0  0  0  0
    6.9446    8.0897    0.0000 C   0  0  3  0  0  0  0  0  0  0  0  0
    5.2964    7.5573    0.0000 C   0  0  3  0  0  0  0  0  0  0  0  0
    7.2520    7.1381    0.0000 C   0  0  0  0  0  0  0  0  0  0  0  0
    6.5816    6.3961    0.0000 C   0  0  3  0  0  0  0  0  0  0  0  0
   19.1258   -4.2642    0.0000 C   0  0  0  0  0  0  0  0  0  0  0  0
    4.3186    7.7669    0.0000 C   0  0  0  0  0  0  0  0  0  0  0  0
   18.1735   -8.0891    0.0000 C   0  0  0  0  0  0  0  0  0  0  0  0
   19.7033   -8.5891    0.0000 C   0  0  0  0  0  0  0  0  0  0  0  0
    6.8889    5.4445    0.0000 C   0  0  0  0  0  0  0  0  0  0  0  0
   18.1735   -9.0891    0.0000 C   0  0  0  0  0  0  0  0  0  0  0  0
    5.8690   10.2287    0.0000 C   0  0  0  0  0  0  0  0  0  0  0  0
    2.6704    7.2345    0.0000 C   0  0  0  0  0  0  0  0  0  0  0  0
    3.9556    6.0733    0.0000 C   0  0  0  0  0  0  0  0  0  0  0  0
   14.2925   -0.5710    0.0000 C   0  0  0  0  0  0  0  0  0  0  0  0
   17.3074   -9.5891    0.0000 C   0  0  0  0  0  0  0  0  0  0  0  0
    5.1271   10.8991    0.0000 C   0  0  0  0  0  0  0  0  0  0  0  0
   13.3147   -0.3614    0.0000 C   0  0  3  0  0  0  0  0  0  0  0  0
    2.0000    6.4926    0.0000 C   0  0  0  0  0  0  0  0  0  0  0  0
    3.2852    5.3314    0.0000 C   0  0  0  0  0  0  0  0  0  0  0  0
   15.2703   -0.7806    0.0000 C   0  0  0  0  0  0  0  0  0  0  0  0
    8.1741    4.2833    0.0000 C   0  0  0  0  0  0  0  0  0  0  0  0
   16.4414   -8.0891    0.0000 C   0  0  0  0  0  0  0  0  0  0  0  0
   14.5021    0.4067    0.0000 C   0  0  0  0  0  0  0  0  0  0  0  0
   14.0829   -1.5488    0.0000 C   0  0  0  0  0  0  0  0  0  0  0  0
    9.1519    4.0737    0.0000 C   0  0  0  0  0  0  0  0  0  0  0  0
   13.0073    0.5902    0.0000 C   0  0  0  0  0  0  0  0  0  0  0  0
   11.7222    1.7514    0.0000 C   0  0  0  0  0  0  0  0  0  0  0  0
   10.7444    1.9610    0.0000 C   0  0  0  0  0  0  0  0  0  0  0  0
   10.4370    2.9125    0.0000 C   0  0  0  0  0  0  0  0  0  0  0  0
   20.2877   -4.9139    0.0000 H   0  0  0  0  0  0  0  0  0  0  0  0
   20.9348   -6.2460    0.0000 H   0  0  0  0  0  0  0  0  0  0  0  0
   18.8209   -5.1178    0.0000 H   0  0  0  0  0  0  0  0  0  0  0  0
   19.8680   -7.2730    0.0000 H   0  0  0  0  0  0  0  0  0  0  0  0
    5.3606    8.4293    0.0000 H   0  0  0  0  0  0  0  0  0  0  0  0
    6.7540    8.6797    0.0000 H   0  0  0  0  0  0  0  0  0  0  0  0
    4.8808    7.0973    0.0000 H   0  0  0  0  0  0  0  0  0  0  0  0
    7.6328    6.6489    0.0000 H   0  0  0  0  0  0  0  0  0  0  0  0
    7.7999    7.4282    0.0000 H   0  0  0  0  0  0  0  0  0  0  0  0
    6.1659    5.9361    0.0000 H   0  0  0  0  0  0  0  0  0  0  0  0
   19.7399   -4.1790    0.0000 H   0  0  0  0  0  0  0  0  0  0  0  0
   19.1485   -3.6446    0.0000 H   0  0  0  0  0  0  0  0  0  0  0  0
    5.0532    9.3808    0.0000 H   0  0  0  0  0  0  0  0  0  0  0  0
   21.7568   -6.8645    0.0000 H   0  0  0  0  0  0  0  0  0  0  0  0
    8.2212    8.7017    0.0000 H   0  0  0  0  0  0  0  0  0  0  0  0
    7.7450    9.4379    0.0000 H   0  0  0  0  0  0  0  0  0  0  0  0
   20.3233   -8.5891    0.0000 H   0  0  0  0  0  0  0  0  0  0  0  0
    2.9037    7.8090    0.0000 H   0  0  0  0  0  0  0  0  0  0  0  0
    2.1452    7.5640    0.0000 H   0  0  0  0  0  0  0  0  0  0  0  0
    4.3364    5.5841    0.0000 H   0  0  0  0  0  0  0  0  0  0  0  0
    4.5035    6.3635    0.0000 H   0  0  0  0  0  0  0  0  0  0  0  0
    5.5427   11.3591    0.0000 H   0  0  0  0  0  0  0  0  0  0  0  0
    4.6670   11.3148    0.0000 H   0  0  0  0  0  0  0  0  0  0  0  0
    4.7114   10.4391    0.0000 H   0  0  0  0  0  0  0  0  0  0  0  0
   13.5053   -0.9514    0.0000 H   0  0  0  0  0  0  0  0  0  0  0  0
   15.8844   -0.6954    0.0000 H   0  0  0  0  0  0  0  0  0  0  0  0
   15.2930   -0.1611    0.0000 H   0  0  0  0  0  0  0  0  0  0  0  0
    1.5400    6.9082    0.0000 H   0  0  0  0  0  0  0  0  0  0  0  0
    1.5843    6.0325    0.0000 H   0  0  0  0  0  0  0  0  0  0  0  0
    2.4600    6.0769    0.0000 H   0  0  0  0  0  0  0  0  0  0  0  0
    2.8251    5.7470    0.0000 H   0  0  0  0  0  0  0  0  0  0  0  0
    2.8695    4.8713    0.0000 H   0  0  0  0  0  0  0  0  0  0  0  0
    3.7452    4.9157    0.0000 H   0  0  0  0  0  0  0  0  0  0  0  0
    7.5600    4.1981    0.0000 H   0  0  0  0  0  0  0  0  0  0  0  0
    8.1514    3.6638    0.0000 H   0  0  0  0  0  0  0  0  0  0  0  0
   21.4903   -2.5871    0.0000 H   0  0  0  0  0  0  0  0  0  0  0  0
   22.4491   -4.3448    0.0000 H   0  0  0  0  0  0  0  0  0  0  0  0
   15.9045   -7.7791    0.0000 H   0  0  0  0  0  0  0  0  0  0  0  0
   15.1083    0.2768    0.0000 H   0  0  0  0  0  0  0  0  0  0  0  0
   14.6321    1.0130    0.0000 H   0  0  0  0  0  0  0  0  0  0  0  0
   13.8959    0.5367    0.0000 H   0  0  0  0  0  0  0  0  0  0  0  0
   13.4767   -1.4189    0.0000 H   0  0  0  0  0  0  0  0  0  0  0  0
   13.9529   -2.1550    0.0000 H   0  0  0  0  0  0  0  0  0  0  0  0
   14.6891   -1.6788    0.0000 H   0  0  0  0  0  0  0  0  0  0  0  0
    9.7660    4.1590    0.0000 H   0  0  0  0  0  0  0  0  0  0  0  0
    9.1746    4.6933    0.0000 H   0  0  0  0  0  0  0  0  0  0  0  0
   16.7591   -4.0166    0.0000 H   0  0  0  0  0  0  0  0  0  0  0  0
   16.7705  -10.8991    0.0000 H   0  0  0  0  0  0  0  0  0  0  0  0
   17.8444  -10.8991    0.0000 H   0  0  0  0  0  0  0  0  0  0  0  0
   12.0381   -0.9735    0.0000 H   0  0  0  0  0  0  0  0  0  0  0  0
   11.6139    0.3397    0.0000 H   0  0  0  0  0  0  0  0  0  0  0  0
    9.0436    2.6621    0.0000 H   0  0  0  0  0  0  0  0  0  0  0  0
   12.3363    1.8366    0.0000 H   0  0  0  0  0  0  0  0  0  0  0  0
   11.7449    2.3709    0.0000 H   0  0  0  0  0  0  0  0  0  0  0  0
   10.1303    1.8757    0.0000 H   0  0  0  0  0  0  0  0  0  0  0  0
   10.7217    1.3414    0.0000 H   0  0  0  0  0  0  0  0  0  0  0  0
   17.3550   -0.7735    0.0000 H   0  0  0  0  0  0  0  0  0  0  0  0
  1 48  1  0  0  0  0
  1 60  1  0  0  0  0
  2  7  1  0  0  0  0
  2 12  1  0  0  0  0
  2 13  1  0  0  0  0
  2 15  2  0  0  0  0
  3  9  1  0  0  0  0
  3 14  1  0  0  0  0
  3 17  1  0  0  0  0
  3 19  2  0  0  0  0
  4 14  1  0  0  0  0
  4 18  1  0  0  0  0
  4 21  1  0  0  0  0
  4 22  2  0  0  0  0
  5 37  1  0  0  0  0
  5 38  1  0  0  0  0
  6 41  1  0  0  0  0
  6 43  1  0  0  0  0
  7 35  1  0  0  0  0
  8 36  1  0  0  0  0
  8 82  1  0  0  0  0
  9 44  1  0  0  0  0
 10 45  2  0  0  0  0
 11 48  2  0  0  0  0
 12104  1  0  0  0  0
 13105  1  0  0  0  0
 16 50  2  0  0  0  0
 17115  1  0  0  0  0
 18 59  1  0  0  0  0
 20 56  1  0  0  0  0
 20118  1  0  0  0  0
 21125  1  0  0  0  0
 23 65  2  0  0  0  0
 24 68  2  0  0  0  0
 25 38  1  0  0  0  0
 25 46  1  0  0  0  0
 25 47  1  0  0  0  0
 26 39  1  0  0  0  0
 26 50  1  0  0  0  0
 26 81  1  0  0  0  0
 27 40  1  0  0  0  0
 27 83  1  0  0  0  0
 27 84  1  0  0  0  0
 28 45  1  0  0  0  0
 28 51  1  0  0  0  0
 28 52  1  0  0  0  0
 29 47  2  0  0  0  0
 29 49  1  0  0  0  0
 30 46  2  0  0  0  0
 30 61  1  0  0  0  0
 31 54  1  0  0  0  0
 31 61  2  0  0  0  0
 32 54  1  0  0  0  0
 32116  1  0  0  0  0
 32117  1  0  0  0  0
 33 65  1  0  0  0  0
 33 66  1  0  0  0  0
 33119  1  0  0  0  0
 34 64  1  0  0  0  0
 34 68  1  0  0  0  0
 34120  1  0  0  0  0
 35 36  1  0  0  0  0
 35 37  1  0  0  0  0
 35 69  1  0  0  0  0
 36 38  1  0  0  0  0
 36 70  1  0  0  0  0
 37 44  1  0  0  0  0
 37 71  1  0  0  0  0
 38 72  1  0  0  0  0
 39 40  1  0  0  0  0
 39 41  1  0  0  0  0
 39 73  1  0  0  0  0
 40 42  1  0  0  0  0
 40 74  1  0  0  0  0
 41 45  1  0  0  0  0
 41 75  1  0  0  0  0
 42 43  1  0  0  0  0
 42 76  1  0  0  0  0
 42 77  1  0  0  0  0
 43 48  1  0  0  0  0
 43 78  1  0  0  0  0
 44 79  1  0  0  0  0
 44 80  1  0  0  0  0
 46 49  1  0  0  0  0
 47 85  1  0  0  0  0
 49 54  2  0  0  0  0
 50 55  1  0  0  0  0
 51 57  1  0  0  0  0
 51 86  1  0  0  0  0
 51 87  1  0  0  0  0
 52 58  1  0  0  0  0
 52 88  1  0  0  0  0
 52 89  1  0  0  0  0
 53 56  1  0  0  0  0
 53 59  1  0  0  0  0
 53 62  1  0  0  0  0
 53 63  1  0  0  0  0
 55 90  1  0  0  0  0
 55 91  1  0  0  0  0
 55 92  1  0  0  0  0
 56 65  1  0  0  0  0
 56 93  1  0  0  0  0
 57 96  1  0  0  0  0
 57 97  1  0  0  0  0
 57 98  1  0  0  0  0
 58 99  1  0  0  0  0
 58100  1  0  0  0  0
 58101  1  0  0  0  0
 59 94  1  0  0  0  0
 59 95  1  0  0  0  0
 60 64  1  0  0  0  0
 60102  1  0  0  0  0
 60103  1  0  0  0  0
 61106  1  0  0  0  0
 62107  1  0  0  0  0
 62108  1  0  0  0  0
 62109  1  0  0  0  0
 63110  1  0  0  0  0
 63111  1  0  0  0  0
 63112  1  0  0  0  0
 64113  1  0  0  0  0
 64114  1  0  0  0  0
 66 67  1  0  0  0  0
 66121  1  0  0  0  0
 66122  1  0  0  0  0
 67 68  1  0  0  0  0
 67123  1  0  0  0  0
 67124  1  0  0  0  0
M  END
> <PUBCHEM_COMPOUND_CID>
155489514

> <PUBCHEM_COMPOUND_CANONICALIZED>
1

> <PUBCHEM_CACTVS_COMPLEXITY>
1920

> <PUBCHEM_CACTVS_HBOND_ACCEPTOR>
26

> <PUBCHEM_CACTVS_HBOND_DONOR>
11

> <PUBCHEM_CACTVS_ROTATABLE_BOND>
25

> <PUBCHEM_CACTVS_SUBSKEYS>
AAADcfB//gNAAAAAAAAAAAAAAAAAAWJAAAAsSAAAAAAAAFgB+AAAHgQQCCAADjzl1waH8L/MFxioQQdxdIKAgC0RELABUKFoVBCDWBpgyEQfRAgPFgLzACH++QKZAAAAAAAAAAAAAAAAAAAAAAAAAAAAAA==

> <PUBCHEM_IUPAC_OPENEYE_NAME>
S-[2-[3-[[4-[[[5-(6-aminopurin-9-yl)-4-hydroxy-3-phosphonooxy-tetrahydrofuran-2-yl]methoxy-hydroxy-phosphoryl]oxy-hydroxy-phosphoryl]oxy-2-hydroxy-3,3-dimethyl-butanoyl]amino]propanoylamino]ethyl] 5-acetamido-4-amino-6-(diethylcarbamoyl)tetrahydropyran-2-carbothioate

> <PUBCHEM_IUPAC_CAS_NAME>
5-acetamido-4-amino-6-[diethylamino(oxo)methyl]-2-oxanecarbothioic acid S-[2-[[3-[[4-[[[5-(6-aminopurin-9-yl)-4-hydroxy-3-phosphonooxy-2-oxolanyl]methoxy-hydroxyphosphoryl]oxy-hydroxyphosphoryl]oxy-2-hydroxy-3,3-dimethyl-1-oxobutyl]amino]-1-oxopropyl]amino]ethyl] ester

> <PUBCHEM_IUPAC_NAME_MARKUP>
<I>S</I>-[2-[3-[[4-[[[5-(6-aminopurin-9-yl)-4-hydroxy-3-phosphonooxyoxolan-2-yl]methoxy-hydroxyphosphoryl]oxy-hydroxyphosphoryl]oxy-2-hydroxy-3,3-dimethylbutanoyl]amino]propanoylamino]ethyl] 5-acetamido-4-amino-6-(diethylcarbamoyl)oxane-2-carbothioate

> <PUBCHEM_IUPAC_NAME>
S-[2-[3-[[4-[[[5-(6-aminopurin-9-yl)-4-hydroxy-3-phosphonooxyoxolan-2-yl]methoxy-hydroxyphosphoryl]oxy-hydroxyphosphoryl]oxy-2-hydroxy-3,3-dimethylbutanoyl]amino]propanoylamino]ethyl] 5-acetamido-4-amino-6-(diethylcarbamoyl)oxane-2-carbothioate

> <PUBCHEM_IUPAC_SYSTEMATIC_NAME>
S-[2-[3-[[4-[[[5-(6-aminopurin-9-yl)-4-oxidanyl-3-phosphonooxy-oxolan-2-yl]methoxy-oxidanyl-phosphoryl]oxy-oxidanyl-phosphoryl]oxy-3,3-dimethyl-2-oxidanyl-butanoyl]amino]propanoylamino]ethyl] 5-acetamido-4-azanyl-6-(diethylcarbamoyl)oxane-2-carbothioate

> <PUBCHEM_IUPAC_TRADITIONAL_NAME>
5-acetamido-4-amino-6-(diethylcarbamoyl)tetrahydropyran-2-carbothioic acid S-[2-[3-[[4-[[(5-adenin-9-yl-4-hydroxy-3-phosphonooxy-tetrahydrofuran-2-yl)methoxy-hydroxy-phosphoryl]oxy-hydroxy-phosphoryl]oxy-2-hydroxy-3,3-dimethyl-butanoyl]amino]propanoylamino]ethyl] ester

> <PUBCHEM_IUPAC_INCHI>
InChI=1S/C34H57N10O20P3S/c1-6-43(7-2)31(50)26-22(42-17(3)45)18(35)12-19(61-26)33(51)68-11-10-37-21(46)8-9-38-30(49)27(48)34(4,5)14-60-67(57,58)64-66(55,56)59-13-20-25(63-65(52,53)54)24(47)32(62-20)44-16-41-23-28(36)39-15-40-29(23)44/h15-16,18-20,22,24-27,32,47-48H,6-14,35H2,1-5H3,(H,37,46)(H,38,49)(H,42,45)(H,55,56)(H,57,58)(H2,36,39,40)(H2,52,53,54)

> <PUBCHEM_IUPAC_INCHIKEY>
UGOFNOWKGRCHIN-UHFFFAOYSA-N

> <PUBCHEM_XLOGP3_AA>
-8.5

> <PUBCHEM_EXACT_MASS>
1050.26841641

> <PUBCHEM_MOLECULAR_FORMULA>
C34H57N10O20P3S

> <PUBCHEM_MOLECULAR_WEIGHT>
1050.9

> <PUBCHEM_OPENEYE_CAN_SMILES>
CCN(CC)C(=O)C1C(C(CC(O1)C(=O)SCCNC(=O)CCNC(=O)C(C(C)(C)COP(=O)(O)OP(=O)(O)OCC2C(C(C(O2)N3C=NC4=C(N=CN=C43)N)O)OP(=O)(O)O)O)N)NC(=O)C

> <PUBCHEM_OPENEYE_ISO_SMILES>
CCN(CC)C(=O)C1C(C(CC(O1)C(=O)SCCNC(=O)CCNC(=O)C(C(C)(C)COP(=O)(O)OP(=O)(O)OCC2C(C(C(O2)N3C=NC4=C(N=CN=C43)N)O)OP(=O)(O)O)O)N)NC(=O)C

> <PUBCHEM_CACTVS_TPSA>
474

> <PUBCHEM_MONOISOTOPIC_WEIGHT>
1050.26841641

> <PUBCHEM_TOTAL_CHARGE>
0

> <PUBCHEM_HEAVY_ATOM_COUNT>
68

> <PUBCHEM_ATOM_DEF_STEREO_COUNT>
0

> <PUBCHEM_ATOM_UDEF_STEREO_COUNT>
9

> <PUBCHEM_BOND_DEF_STEREO_COUNT>
0

> <PUBCHEM_BOND_UDEF_STEREO_COUNT>
0

> <PUBCHEM_ISOTOPIC_ATOM_COUNT>
0

> <PUBCHEM_COMPONENT_COUNT>
1

> <PUBCHEM_CACTVS_TAUTO_COUNT>
-1

> <PUBCHEM_COORDINATE_TYPE>
1
5
255

> <PUBCHEM_BONDANNOTATIONS>
56  20  3
38  25  3
25  46  8
25  47  8
39  26  3
40  27  3
29  47  8
29  49  8
30  46  8
30  61  8
31  54  8
31  61  8
37  44  3
41  45  3
43  48  3
46  49  8
49  54  8
35  7  3
36  8  3

$$$$
155489588
  -OEChem-03012215082D

106109  0     1  0  0  0  0  0999 V2000
   21.4481    1.8399    0.0000 S   0  0  0  0  0  0  0  0  0  0  0  0
    5.3548    2.2415    0.0000 P   0  0  0  0  0  0  0  0  0  0  0  0
    8.4752    1.0017    0.0000 P   0  0  3  0  0  0  0  0  0  0  0  0
   10.1980    1.1798    0.0000 P   0  0  3  0  0  0  0  0  0  0  0  0
    5.9405   -0.7627    0.0000 O   0  0  0  0  0  0  0  0  0  0  0  0
    4.6844    1.4995    0.0000 O   0  0  0  0  0  0  0  0  0  0  0  0
    3.4026   -0.2583    0.0000 O   0  0  0  0  0  0  0  0  0  0  0  0
    7.6651    0.4153    0.0000 O   0  0  0  0  0  0  0  0  0  0  0  0
    6.0252    2.9835    0.0000 O   0  0  0  0  0  0  0  0  0  0  0  0
    4.6128    2.9119    0.0000 O   0  0  0  0  0  0  0  0  0  0  0  0
    9.2852    1.5881    0.0000 O   0  0  0  0  0  0  0  0  0  0  0  0
    6.0968    1.5711    0.0000 O   0  0  0  0  0  0  0  0  0  0  0  0
   11.1109    0.7715    0.0000 O   0  0  0  0  0  0  0  0  0  0  0  0
    9.0615    0.1917    0.0000 O   0  0  0  0  0  0  0  0  0  0  0  0
    7.8888    1.8118    0.0000 O   0  0  0  0  0  0  0  0  0  0  0  0
   13.8494   -0.4535    0.0000 O   0  0  0  0  0  0  0  0  0  0  0  0
   10.6063    2.0926    0.0000 O   0  0  0  0  0  0  0  0  0  0  0  0
    9.7897    0.2669    0.0000 O   0  0  0  0  0  0  0  0  0  0  0  0
   14.4538    2.1223    0.0000 O   0  0  0  0  0  0  0  0  0  0  0  0
   17.8996    2.4784    0.0000 O   0  0  0  0  0  0  0  0  0  0  0  0
   22.4638    0.4369    0.0000 O   0  0  0  0  0  0  0  0  0  0  0  0
   25.9095    0.7930    0.0000 O   0  0  0  0  0  0  0  0  0  0  0  0
   27.3240    3.9552    0.0000 O   0  0  0  0  0  0  0  0  0  0  0  0
    4.6783   -2.0206    0.0000 N   0  0  0  0  0  0  0  0  0  0  0  0
    4.6783   -3.6301    0.0000 N   0  0  0  0  0  0  0  0  0  0  0  0
    2.8660   -1.8254    0.0000 N   0  0  0  0  0  0  0  0  0  0  0  0
    2.0000   -3.3254    0.0000 N   0  0  0  0  0  0  0  0  0  0  0  0
    2.8660   -4.8254    0.0000 N   0  0  0  0  0  0  0  0  0  0  0  0
   15.4695    0.7193    0.0000 N   0  0  0  0  0  0  0  0  0  0  0  0
   18.9152    1.0754    0.0000 N   0  0  0  0  0  0  0  0  0  0  0  0
   23.0682    3.0126    0.0000 N   0  0  0  0  0  0  0  0  0  0  0  0
   25.4983    4.7718    0.0000 N   0  0  0  0  0  0  0  0  0  0  0  0
    4.9917    0.5479    0.0000 C   0  0  3  0  0  0  0  0  0  0  0  0
    4.4026   -0.2601    0.0000 C   0  0  3  0  0  0  0  0  0  0  0  0
    5.9422    0.2373    0.0000 C   0  0  3  0  0  0  0  0  0  0  0  0
    4.9889   -1.0701    0.0000 C   0  0  3  0  0  0  0  0  0  0  0  0
    6.7523    0.8237    0.0000 C   0  0  0  0  0  0  0  0  0  0  0  0
    3.7320   -2.3253    0.0000 C   0  0  0  0  0  0  0  0  0  0  0  0
    5.2619   -2.8253    0.0000 C   0  0  0  0  0  0  0  0  0  0  0  0
    3.7320   -3.3254    0.0000 C   0  0  0  0  0  0  0  0  0  0  0  0
   12.8337    0.9495    0.0000 C   0  0  0  0  0  0  0  0  0  0  0  0
    2.8660   -3.8254    0.0000 C   0  0  0  0  0  0  0  0  0  0  0  0
   13.7466    0.5412    0.0000 C   0  0  3  0  0  0  0  0  0  0  0  0
   11.9209    1.3578    0.0000 C   0  0  0  0  0  0  0  0  0  0  0  0
   13.2421    1.8624    0.0000 C   0  0  0  0  0  0  0  0  0  0  0  0
   12.4254    0.0367    0.0000 C   0  0  0  0  0  0  0  0  0  0  0  0
    2.0000   -2.3253    0.0000 C   0  0  0  0  0  0  0  0  0  0  0  0
   14.5566    1.1276    0.0000 C   0  0  0  0  0  0  0  0  0  0  0  0
   16.2795    1.3057    0.0000 C   0  0  0  0  0  0  0  0  0  0  0  0
   17.1923    0.8974    0.0000 C   0  0  0  0  0  0  0  0  0  0  0  0
   18.0024    1.4837    0.0000 C   0  0  0  0  0  0  0  0  0  0  0  0
   19.7252    1.6618    0.0000 C   0  0  0  0  0  0  0  0  0  0  0  0
   20.6381    1.2535    0.0000 C   0  0  0  0  0  0  0  0  0  0  0  0
   23.1710    2.0179    0.0000 C   0  0  3  0  0  0  0  0  0  0  0  0
   24.0838    1.6096    0.0000 C   0  0  0  0  0  0  0  0  0  0  0  0
   24.8939    2.1960    0.0000 C   0  0  0  0  0  0  0  0  0  0  0  0
   22.3610    1.4316    0.0000 C   0  0  0  0  0  0  0  0  0  0  0  0
   25.8067    1.7877    0.0000 C   0  0  0  0  0  0  0  0  0  0  0  0
   24.7910    3.1907    0.0000 C   0  0  0  0  0  0  0  0  0  0  0  0
   25.6011    3.7771    0.0000 C   0  0  0  0  0  0  0  0  0  0  0  0
   26.6167    2.3741    0.0000 C   0  0  0  0  0  0  0  0  0  0  0  0
   26.5139    3.3688    0.0000 C   0  0  0  0  0  0  0  0  0  0  0  0
    5.4309    0.9856    0.0000 H   0  0  0  0  0  0  0  0  0  0  0  0
    4.1201   -0.8120    0.0000 H   0  0  0  0  0  0  0  0  0  0  0  0
    6.4942   -0.0452    0.0000 H   0  0  0  0  0  0  0  0  0  0  0  0
    5.4266   -1.5093    0.0000 H   0  0  0  0  0  0  0  0  0  0  0  0
    7.0999    1.3370    0.0000 H   0  0  0  0  0  0  0  0  0  0  0  0
    6.3070    1.2551    0.0000 H   0  0  0  0  0  0  0  0  0  0  0  0
    3.0935    0.2791    0.0000 H   0  0  0  0  0  0  0  0  0  0  0  0
    5.8819   -2.8253    0.0000 H   0  0  0  0  0  0  0  0  0  0  0  0
   13.2444    0.1777    0.0000 H   0  0  0  0  0  0  0  0  0  0  0  0
   12.2685    1.8713    0.0000 H   0  0  0  0  0  0  0  0  0  0  0  0
   11.4757    1.7893    0.0000 H   0  0  0  0  0  0  0  0  0  0  0  0
   13.8080    1.6092    0.0000 H   0  0  0  0  0  0  0  0  0  0  0  0
   13.4952    2.4283    0.0000 H   0  0  0  0  0  0  0  0  0  0  0  0
   12.6761    2.1155    0.0000 H   0  0  0  0  0  0  0  0  0  0  0  0
   11.8595    0.2899    0.0000 H   0  0  0  0  0  0  0  0  0  0  0  0
   12.1723   -0.5293    0.0000 H   0  0  0  0  0  0  0  0  0  0  0  0
   12.9914   -0.2165    0.0000 H   0  0  0  0  0  0  0  0  0  0  0  0
    5.8346    3.5735    0.0000 H   0  0  0  0  0  0  0  0  0  0  0  0
    4.0228    2.7214    0.0000 H   0  0  0  0  0  0  0  0  0  0  0  0
    1.4631   -2.0154    0.0000 H   0  0  0  0  0  0  0  0  0  0  0  0
    8.8084   -0.3743    0.0000 H   0  0  0  0  0  0  0  0  0  0  0  0
    2.3291   -5.1354    0.0000 H   0  0  0  0  0  0  0  0  0  0  0  0
    3.4030   -5.1354    0.0000 H   0  0  0  0  0  0  0  0  0  0  0  0
   14.4154   -0.7066    0.0000 H   0  0  0  0  0  0  0  0  0  0  0  0
   15.5332    0.1026    0.0000 H   0  0  0  0  0  0  0  0  0  0  0  0
   16.6271    1.8191    0.0000 H   0  0  0  0  0  0  0  0  0  0  0  0
   15.8342    1.7371    0.0000 H   0  0  0  0  0  0  0  0  0  0  0  0
   10.2428    2.5948    0.0000 H   0  0  0  0  0  0  0  0  0  0  0  0
   16.8447    0.3840    0.0000 H   0  0  0  0  0  0  0  0  0  0  0  0
   17.6376    0.4659    0.0000 H   0  0  0  0  0  0  0  0  0  0  0  0
   18.9789    0.4587    0.0000 H   0  0  0  0  0  0  0  0  0  0  0  0
   20.0728    2.1752    0.0000 H   0  0  0  0  0  0  0  0  0  0  0  0
   19.2800    2.0933    0.0000 H   0  0  0  0  0  0  0  0  0  0  0  0
   20.2905    0.7401    0.0000 H   0  0  0  0  0  0  0  0  0  0  0  0
   21.0833    0.8220    0.0000 H   0  0  0  0  0  0  0  0  0  0  0  0
   22.6050    2.2711    0.0000 H   0  0  0  0  0  0  0  0  0  0  0  0
   23.7362    1.0962    0.0000 H   0  0  0  0  0  0  0  0  0  0  0  0
   24.5291    1.1782    0.0000 H   0  0  0  0  0  0  0  0  0  0  0  0
   24.2251    3.4439    0.0000 H   0  0  0  0  0  0  0  0  0  0  0  0
   22.5022    3.2658    0.0000 H   0  0  0  0  0  0  0  0  0  0  0  0
   23.5704    3.3762    0.0000 H   0  0  0  0  0  0  0  0  0  0  0  0
   27.1827    2.1209    0.0000 H   0  0  0  0  0  0  0  0  0  0  0  0
   26.4755    0.5398    0.0000 H   0  0  0  0  0  0  0  0  0  0  0  0
   26.0005    5.1354    0.0000 H   0  0  0  0  0  0  0  0  0  0  0  0
  1 53  1  0  0  0  0
  1 57  1  0  0  0  0
  2  6  1  0  0  0  0
  2  9  1  0  0  0  0
  2 10  1  0  0  0  0
  2 12  2  0  0  0  0
  3  8  1  0  0  0  0
  3 11  1  0  0  0  0
  3 14  1  0  0  0  0
  3 15  2  0  0  0  0
  4 11  1  0  0  0  0
  4 13  1  0  0  0  0
  4 17  1  0  0  0  0
  4 18  2  0  0  0  0
  5 35  1  0  0  0  0
  5 36  1  0  0  0  0
  6 33  1  0  0  0  0
  7 34  1  0  0  0  0
  7 69  1  0  0  0  0
  8 37  1  0  0  0  0
  9 80  1  0  0  0  0
 10 81  1  0  0  0  0
 13 44  1  0  0  0  0
 14 83  1  0  0  0  0
 16 43  1  0  0  0  0
 16 86  1  0  0  0  0
 17 90  1  0  0  0  0
 19 48  2  0  0  0  0
 20 51  2  0  0  0  0
 21 57  2  0  0  0  0
 22 58  1  0  0  0  0
 22105  1  0  0  0  0
 23 62  2  0  0  0  0
 24 36  1  0  0  0  0
 24 38  1  0  0  0  0
 24 39  1  0  0  0  0
 25 39  2  0  0  0  0
 25 40  1  0  0  0  0
 26 38  2  0  0  0  0
 26 47  1  0  0  0  0
 27 42  1  0  0  0  0
 27 47  2  0  0  0  0
 28 42  1  0  0  0  0
 28 84  1  0  0  0  0
 28 85  1  0  0  0  0
 29 48  1  0  0  0  0
 29 49  1  0  0  0  0
 29 87  1  0  0  0  0
 30 51  1  0  0  0  0
 30 52  1  0  0  0  0
 30 93  1  0  0  0  0
 31 54  1  0  0  0  0
 31102  1  0  0  0  0
 31103  1  0  0  0  0
 32 60  2  0  0  0  0
 32106  1  0  0  0  0
 33 34  1  0  0  0  0
 33 35  1  0  0  0  0
 33 63  1  0  0  0  0
 34 36  1  0  0  0  0
 34 64  1  0  0  0  0
 35 37  1  0  0  0  0
 35 65  1  0  0  0  0
 36 66  1  0  0  0  0
 37 67  1  0  0  0  0
 37 68  1  0  0  0  0
 38 40  1  0  0  0  0
 39 70  1  0  0  0  0
 40 42  2  0  0  0  0
 41 43  1  0  0  0  0
 41 44  1  0  0  0  0
 41 45  1  0  0  0  0
 41 46  1  0  0  0  0
 43 48  1  0  0  0  0
 43 71  1  0  0  0  0
 44 72  1  0  0  0  0
 44 73  1  0  0  0  0
 45 74  1  0  0  0  0
 45 75  1  0  0  0  0
 45 76  1  0  0  0  0
 46 77  1  0  0  0  0
 46 78  1  0  0  0  0
 46 79  1  0  0  0  0
 47 82  1  0  0  0  0
 49 50  1  0  0  0  0
 49 88  1  0  0  0  0
 49 89  1  0  0  0  0
 50 51  1  0  0  0  0
 50 91  1  0  0  0  0
 50 92  1  0  0  0  0
 52 53  1  0  0  0  0
 52 94  1  0  0  0  0
 52 95  1  0  0  0  0
 53 96  1  0  0  0  0
 53 97  1  0  0  0  0
 54 55  1  0  0  0  0
 54 57  1  0  0  0  0
 54 98  1  0  0  0  0
 55 56  1  0  0  0  0
 55 99  1  0  0  0  0
 55100  1  0  0  0  0
 56 58  1  0  0  0  0
 56 59  2  0  0  0  0
 58 61  2  0  0  0  0
 59 60  1  0  0  0  0
 59101  1  0  0  0  0
 60 62  1  0  0  0  0
 61 62  1  0  0  0  0
 61104  1  0  0  0  0
M  END
> <PUBCHEM_COMPOUND_CID>
155489588

> <PUBCHEM_COMPOUND_CANONICALIZED>
1

> <PUBCHEM_CACTVS_COMPLEXITY>
1910

> <PUBCHEM_CACTVS_HBOND_ACCEPTOR>
26

> <PUBCHEM_CACTVS_HBOND_DONOR>
12

> <PUBCHEM_CACTVS_ROTATABLE_BOND>
23

> <PUBCHEM_CACTVS_SUBSKEYS>
AAADcfB7/gNAAAAAAAAAAAAAAAAAAWJAAAAsQAAAAAAAAFgB+AAAHgQQCCAADjzl1waH8L/MFxioQ6dzdIKAgC0xMLABWKH4VFiLXBpgyUAeVAgPlgL7kSL6NAIJAAAAAAAAAAAAAAAAAAAAAAAAAAAAAA==

> <PUBCHEM_IUPAC_OPENEYE_NAME>
S-[2-[3-[[4-[[[5-(6-aminopurin-9-yl)-4-hydroxy-3-phosphonooxy-tetrahydrofuran-2-yl]methoxy-hydroxy-phosphoryl]oxy-hydroxy-phosphoryl]oxy-2-hydroxy-3,3-dimethyl-butanoyl]amino]propanoylamino]ethyl] 2-amino-3-(6-hydroxy-3-imino-4-oxo-cyclohexa-1,5-dien-1-yl)propanethioate

> <PUBCHEM_IUPAC_CAS_NAME>
2-amino-3-(6-hydroxy-3-imino-4-oxo-1-cyclohexa-1,5-dienyl)propanethioic acid S-[2-[[3-[[4-[[[5-(6-aminopurin-9-yl)-4-hydroxy-3-phosphonooxy-2-oxolanyl]methoxy-hydroxyphosphoryl]oxy-hydroxyphosphoryl]oxy-2-hydroxy-3,3-dimethyl-1-oxobutyl]amino]-1-oxopropyl]amino]ethyl] ester

> <PUBCHEM_IUPAC_NAME_MARKUP>
<I>S</I>-[2-[3-[[4-[[[5-(6-aminopurin-9-yl)-4-hydroxy-3-phosphonooxyoxolan-2-yl]methoxy-hydroxyphosphoryl]oxy-hydroxyphosphoryl]oxy-2-hydroxy-3,3-dimethylbutanoyl]amino]propanoylamino]ethyl] 2-amino-3-(6-hydroxy-3-imino-4-oxocyclohexa-1,5-dien-1-yl)propanethioate

> <PUBCHEM_IUPAC_NAME>
S-[2-[3-[[4-[[[5-(6-aminopurin-9-yl)-4-hydroxy-3-phosphonooxyoxolan-2-yl]methoxy-hydroxyphosphoryl]oxy-hydroxyphosphoryl]oxy-2-hydroxy-3,3-dimethylbutanoyl]amino]propanoylamino]ethyl] 2-amino-3-(6-hydroxy-3-imino-4-oxocyclohexa-1,5-dien-1-yl)propanethioate

> <PUBCHEM_IUPAC_SYSTEMATIC_NAME>
S-[2-[3-[[4-[[[5-(6-aminopurin-9-yl)-4-oxidanyl-3-phosphonooxy-oxolan-2-yl]methoxy-oxidanyl-phosphoryl]oxy-oxidanyl-phosphoryl]oxy-3,3-dimethyl-2-oxidanyl-butanoyl]amino]propanoylamino]ethyl] 2-azanyl-3-(3-azanylidene-6-oxidanyl-4-oxidanylidene-cyclohexa-1,5-dien-1-yl)propanethioate

> <PUBCHEM_IUPAC_TRADITIONAL_NAME>
2-amino-3-(6-hydroxy-3-imino-4-keto-cyclohexa-1,5-dien-1-yl)propanethioic acid S-[2-[3-[[4-[[(5-adenin-9-yl-4-hydroxy-3-phosphonooxy-tetrahydrofuran-2-yl)methoxy-hydroxy-phosphoryl]oxy-hydroxy-phosphoryl]oxy-2-hydroxy-3,3-dimethyl-butanoyl]amino]propanoylamino]ethyl] ester

> <PUBCHEM_IUPAC_INCHI>
InChI=1S/C30H44N9O19P3S/c1-30(2,24(44)27(45)35-4-3-20(42)34-5-6-62-29(46)16(32)8-14-7-15(31)18(41)9-17(14)40)11-55-61(52,53)58-60(50,51)54-10-19-23(57-59(47,48)49)22(43)28(56-19)39-13-38-21-25(33)36-12-37-26(21)39/h7,9,12-13,16,19,22-24,28,31,40,43-44H,3-6,8,10-11,32H2,1-2H3,(H,34,42)(H,35,45)(H,50,51)(H,52,53)(H2,33,36,37)(H2,47,48,49)

> <PUBCHEM_IUPAC_INCHIKEY>
MSGORWDWFSACDV-UHFFFAOYSA-N

> <PUBCHEM_XLOGP3_AA>
-9.4

> <PUBCHEM_EXACT_MASS>
959.16870237

> <PUBCHEM_MOLECULAR_FORMULA>
C30H44N9O19P3S

> <PUBCHEM_MOLECULAR_WEIGHT>
959.7

> <PUBCHEM_OPENEYE_CAN_SMILES>
CC(C)(COP(=O)(O)OP(=O)(O)OCC1C(C(C(O1)N2C=NC3=C(N=CN=C32)N)O)OP(=O)(O)O)C(C(=O)NCCC(=O)NCCSC(=O)C(CC4=CC(=N)C(=O)C=C4O)N)O

> <PUBCHEM_OPENEYE_ISO_SMILES>
CC(C)(COP(=O)(O)OP(=O)(O)OCC1C(C(C(O1)N2C=NC3=C(N=CN=C32)N)O)OP(=O)(O)O)C(C(=O)NCCC(=O)NCCSC(=O)C(CC4=CC(=N)C(=O)C=C4O)N)O

> <PUBCHEM_CACTVS_TPSA>
476

> <PUBCHEM_MONOISOTOPIC_WEIGHT>
959.16870237

> <PUBCHEM_TOTAL_CHARGE>
0

> <PUBCHEM_HEAVY_ATOM_COUNT>
62

> <PUBCHEM_ATOM_DEF_STEREO_COUNT>
0

> <PUBCHEM_ATOM_UDEF_STEREO_COUNT>
6

> <PUBCHEM_BOND_DEF_STEREO_COUNT>
0

> <PUBCHEM_BOND_UDEF_STEREO_COUNT>
0

> <PUBCHEM_ISOTOPIC_ATOM_COUNT>
0

> <PUBCHEM_COMPONENT_COUNT>
1

> <PUBCHEM_CACTVS_TAUTO_COUNT>
-1

> <PUBCHEM_COORDINATE_TYPE>
1
5
255

> <PUBCHEM_BONDANNOTATIONS>
43  16  3
36  24  3
24  38  8
24  39  8
25  39  8
25  40  8
26  38  8
26  47  8
27  42  8
27  47  8
54  31  3
35  37  3
38  40  8
40  42  8
33  6  3
34  7  3

$$$$
155489663
  -OEChem-03012215082D

118124  0     1  0  0  0  0  0999 V2000
    4.6095   11.9554    0.0000 S   0  0  0  0  0  0  0  0  0  0  0  0
    6.9849    8.8423    0.0000 S   0  0  0  0  0  0  0  0  0  0  0  0
    8.6036    5.7120    0.0000 S   0  0  0  0  0  0  0  0  0  0  0  0
   18.8191   -5.7937    0.0000 P   0  0  0  0  0  0  0  0  0  0  0  0
   15.0071   -5.6015    0.0000 P   0  0  3  0  0  0  0  0  0  0  0  0
   14.0966   -4.1281    0.0000 P   0  0  3  0  0  0  0  0  0  0  0  0
   16.9324   -8.5398    0.0000 O   0  0  0  0  0  0  0  0  0  0  0  0
   17.8777   -6.1310    0.0000 O   0  0  0  0  0  0  0  0  0  0  0  0
   19.3812   -7.7035    0.0000 O   0  0  0  0  0  0  0  0  0  0  0  0
   15.8877   -6.0754    0.0000 O   0  0  0  0  0  0  0  0  0  0  0  0
   19.7605   -5.4564    0.0000 O   0  0  0  0  0  0  0  0  0  0  0  0
   18.4818   -4.8523    0.0000 O   0  0  0  0  0  0  0  0  0  0  0  0
   14.1265   -5.1277    0.0000 O   0  0  0  0  0  0  0  0  0  0  0  0
   19.1565   -6.7351    0.0000 O   0  0  0  0  0  0  0  0  0  0  0  0
   14.0667   -3.1286    0.0000 O   0  0  0  0  0  0  0  0  0  0  0  0
   14.5332   -6.4822    0.0000 O   0  0  0  0  0  0  0  0  0  0  0  0
   15.4810   -4.7210    0.0000 O   0  0  0  0  0  0  0  0  0  0  0  0
   13.9769   -0.1299    0.0000 O   0  0  0  0  0  0  0  0  0  0  0  0
   15.0961   -4.0982    0.0000 O   0  0  0  0  0  0  0  0  0  0  0  0
   13.0970   -4.1580    0.0000 O   0  0  0  0  0  0  0  0  0  0  0  0
   11.3950   -0.7074    0.0000 O   0  0  0  0  0  0  0  0  0  0  0  0
    3.9898    6.9853    0.0000 O   0  0  0  0  0  0  0  0  0  0  0  0
    4.0675    8.7156    0.0000 O   0  0  0  0  0  0  0  0  0  0  0  0
    9.5740    2.2394    0.0000 O   0  0  0  0  0  0  0  0  0  0  0  0
    9.4244    7.2372    0.0000 O   0  0  0  0  0  0  0  0  0  0  0  0
   18.3503   -9.6193    0.0000 N   0  0  0  0  0  0  0  0  0  0  0  0
   18.5635  -11.2146    0.0000 N   0  0  0  0  0  0  0  0  0  0  0  0
    4.1095   10.4165    0.0000 N   0  0  0  0  0  0  0  0  0  0  0  0
   20.1206   -9.1856    0.0000 N   0  0  0  0  0  0  0  0  0  0  0  0
    5.7212   10.4179    0.0000 N   0  0  0  0  0  0  0  0  0  0  0  0
   21.1778  -10.5576    0.0000 N   0  0  0  0  0  0  0  0  0  0  0  0
   20.5182  -12.1592    0.0000 N   0  0  0  0  0  0  0  0  0  0  0  0
   12.2157    0.8178    0.0000 N   0  0  0  0  0  0  0  0  0  0  0  0
    6.8841    6.5976    0.0000 N   0  0  0  0  0  0  0  0  0  0  0  0
   10.3947    3.7647    0.0000 N   0  0  0  0  0  0  0  0  0  0  0  0
   17.6992   -7.1150    0.0000 C   0  0  3  0  0  0  0  0  0  0  0  0
   18.3902   -7.8378    0.0000 C   0  0  3  0  0  0  0  0  0  0  0  0
   16.7982   -7.5488    0.0000 C   0  0  3  0  0  0  0  0  0  0  0  0
   17.9164   -8.7183    0.0000 C   0  0  3  0  0  0  0  0  0  0  0  0
   15.9176   -7.0750    0.0000 C   0  0  0  0  0  0  0  0  0  0  0  0
   19.3285   -9.7960    0.0000 C   0  0  0  0  0  0  0  0  0  0  0  0
   17.8784  -10.4943    0.0000 C   0  0  0  0  0  0  0  0  0  0  0  0
   19.4610  -10.7872    0.0000 C   0  0  0  0  0  0  0  0  0  0  0  0
    3.3004   11.0043    0.0000 C   0  0  0  0  0  0  0  0  0  0  0  0
    2.3064   11.0069    0.0000 C   0  0  0  0  0  0  0  0  0  0  0  0
    2.0000   11.9526    0.0000 C   0  0  0  0  0  0  0  0  0  0  0  0
    2.8037   12.5376    0.0000 C   0  0  0  0  0  0  0  0  0  0  0  0
    3.6095   11.9554    0.0000 C   0  0  0  0  0  0  0  0  0  0  0  0
   13.1562   -1.6552    0.0000 C   0  0  0  0  0  0  0  0  0  0  0  0
   20.3857  -11.1680    0.0000 C   0  0  0  0  0  0  0  0  0  0  0  0
    4.9185   11.0043    0.0000 C   0  0  0  0  0  0  0  0  0  0  0  0
   13.1263   -0.6556    0.0000 C   0  0  3  0  0  0  0  0  0  0  0  0
   13.1861   -2.6547    0.0000 C   0  0  0  0  0  0  0  0  0  0  0  0
    4.4191    9.4719    0.0000 C   0  0  0  0  0  0  0  0  0  0  0  0
    5.4132    9.4728    0.0000 C   0  0  0  0  0  0  0  0  0  0  0  0
   21.0453   -9.5664    0.0000 C   0  0  0  0  0  0  0  0  0  0  0  0
   14.1557   -1.6252    0.0000 C   0  0  0  0  0  0  0  0  0  0  0  0
   12.1566   -1.6851    0.0000 C   0  0  0  0  0  0  0  0  0  0  0  0
    6.0010    8.6637    0.0000 C   0  0  3  0  0  0  0  0  0  0  0  0
   12.2457   -0.1817    0.0000 C   0  0  0  0  0  0  0  0  0  0  0  0
    5.5271    7.7832    0.0000 C   0  0  0  0  0  0  0  0  0  0  0  0
   11.3351    1.2917    0.0000 C   0  0  0  0  0  0  0  0  0  0  0  0
    7.7380    8.1844    0.0000 C   0  0  0  0  0  0  0  0  0  0  0  0
    5.9201    6.8636    0.0000 C   0  0  0  0  0  0  0  0  0  0  0  0
    4.5281    7.8280    0.0000 C   0  0  0  0  0  0  0  0  0  0  0  0
   11.3052    2.2912    0.0000 C   0  0  0  0  0  0  0  0  0  0  0  0
    7.6931    7.1854    0.0000 C   0  0  0  0  0  0  0  0  0  0  0  0
   10.4246    2.7651    0.0000 C   0  0  0  0  0  0  0  0  0  0  0  0
    8.5737    6.7115    0.0000 C   0  0  0  0  0  0  0  0  0  0  0  0
    9.5141    4.2385    0.0000 C   0  0  0  0  0  0  0  0  0  0  0  0
    9.4842    5.2381    0.0000 C   0  0  0  0  0  0  0  0  0  0  0  0
   18.2930   -6.9366    0.0000 H   0  0  0  0  0  0  0  0  0  0  0  0
   18.5950   -7.2526    0.0000 H   0  0  0  0  0  0  0  0  0  0  0  0
   16.2886   -7.9019    0.0000 H   0  0  0  0  0  0  0  0  0  0  0  0
   17.5408   -9.2116    0.0000 H   0  0  0  0  0  0  0  0  0  0  0  0
   15.3041   -6.9856    0.0000 H   0  0  0  0  0  0  0  0  0  0  0  0
   15.7231   -7.6637    0.0000 H   0  0  0  0  0  0  0  0  0  0  0  0
   19.6163   -7.1298    0.0000 H   0  0  0  0  0  0  0  0  0  0  0  0
   17.2639  -10.5765    0.0000 H   0  0  0  0  0  0  0  0  0  0  0  0
    1.6997   10.8789    0.0000 H   0  0  0  0  0  0  0  0  0  0  0  0
    2.3699   10.3902    0.0000 H   0  0  0  0  0  0  0  0  0  0  0  0
    1.6898   12.4894    0.0000 H   0  0  0  0  0  0  0  0  0  0  0  0
    1.4335   11.7006    0.0000 H   0  0  0  0  0  0  0  0  0  0  0  0
    3.2176   12.9992    0.0000 H   0  0  0  0  0  0  0  0  0  0  0  0
    2.3882   12.9977    0.0000 H   0  0  0  0  0  0  0  0  0  0  0  0
   13.1077   -0.0359    0.0000 H   0  0  0  0  0  0  0  0  0  0  0  0
   12.5726   -2.5654    0.0000 H   0  0  0  0  0  0  0  0  0  0  0  0
   12.9916   -3.2434    0.0000 H   0  0  0  0  0  0  0  0  0  0  0  0
    4.0555    8.9697    0.0000 H   0  0  0  0  0  0  0  0  0  0  0  0
   19.8712   -4.8463    0.0000 H   0  0  0  0  0  0  0  0  0  0  0  0
   18.8827   -4.3794    0.0000 H   0  0  0  0  0  0  0  0  0  0  0  0
   21.5364   -9.1880    0.0000 H   0  0  0  0  0  0  0  0  0  0  0  0
   14.1743   -2.2450    0.0000 H   0  0  0  0  0  0  0  0  0  0  0  0
   14.7754   -1.6067    0.0000 H   0  0  0  0  0  0  0  0  0  0  0  0
   14.1372   -1.0055    0.0000 H   0  0  0  0  0  0  0  0  0  0  0  0
   12.1381   -1.0654    0.0000 H   0  0  0  0  0  0  0  0  0  0  0  0
   11.5369   -1.7036    0.0000 H   0  0  0  0  0  0  0  0  0  0  0  0
   12.1752   -2.3048    0.0000 H   0  0  0  0  0  0  0  0  0  0  0  0
    5.3824    8.6220    0.0000 H   0  0  0  0  0  0  0  0  0  0  0  0
   13.9135   -6.5007    0.0000 H   0  0  0  0  0  0  0  0  0  0  0  0
   21.0915  -12.3953    0.0000 H   0  0  0  0  0  0  0  0  0  0  0  0
   20.0271  -12.5376    0.0000 H   0  0  0  0  0  0  0  0  0  0  0  0
   14.5229   -0.4237    0.0000 H   0  0  0  0  0  0  0  0  0  0  0  0
   12.7432    1.1437    0.0000 H   0  0  0  0  0  0  0  0  0  0  0  0
   10.7216    1.3810    0.0000 H   0  0  0  0  0  0  0  0  0  0  0  0
   11.1406    0.7030    0.0000 H   0  0  0  0  0  0  0  0  0  0  0  0
   15.3899   -3.5522    0.0000 H   0  0  0  0  0  0  0  0  0  0  0  0
    8.3356    8.0194    0.0000 H   0  0  0  0  0  0  0  0  0  0  0  0
    8.0318    8.7303    0.0000 H   0  0  0  0  0  0  0  0  0  0  0  0
    5.5122    6.3967    0.0000 H   0  0  0  0  0  0  0  0  0  0  0  0
   11.9188    2.2019    0.0000 H   0  0  0  0  0  0  0  0  0  0  0  0
   11.4998    2.8799    0.0000 H   0  0  0  0  0  0  0  0  0  0  0  0
   10.9221    4.0906    0.0000 H   0  0  0  0  0  0  0  0  0  0  0  0
    3.3704    7.0131    0.0000 H   0  0  0  0  0  0  0  0  0  0  0  0
    8.9006    4.3279    0.0000 H   0  0  0  0  0  0  0  0  0  0  0  0
    9.3196    3.6498    0.0000 H   0  0  0  0  0  0  0  0  0  0  0  0
   10.0977    5.1487    0.0000 H   0  0  0  0  0  0  0  0  0  0  0  0
    9.6787    5.8268    0.0000 H   0  0  0  0  0  0  0  0  0  0  0  0
  1 48  1  0  0  0  0
  1 51  1  0  0  0  0
  2 59  1  0  0  0  0
  2 63  1  0  0  0  0
  3 69  1  0  0  0  0
  3 71  1  0  0  0  0
  4  8  1  0  0  0  0
  4 11  1  0  0  0  0
  4 12  1  0  0  0  0
  4 14  2  0  0  0  0
  5 10  1  0  0  0  0
  5 13  1  0  0  0  0
  5 16  1  0  0  0  0
  5 17  2  0  0  0  0
  6 13  1  0  0  0  0
  6 15  1  0  0  0  0
  6 19  1  0  0  0  0
  6 20  2  0  0  0  0
  7 38  1  0  0  0  0
  7 39  1  0  0  0  0
  8 36  1  0  0  0  0
  9 37  1  0  0  0  0
  9 78  1  0  0  0  0
 10 40  1  0  0  0  0
 11 90  1  0  0  0  0
 12 91  1  0  0  0  0
 15 53  1  0  0  0  0
 16100  1  0  0  0  0
 18 52  1  0  0  0  0
 18103  1  0  0  0  0
 19107  1  0  0  0  0
 21 60  2  0  0  0  0
 22 65  1  0  0  0  0
 22114  1  0  0  0  0
 23 65  2  0  0  0  0
 24 68  2  0  0  0  0
 25 69  2  0  0  0  0
 26 39  1  0  0  0  0
 26 41  1  0  0  0  0
 26 42  1  0  0  0  0
 27 42  2  0  0  0  0
 27 43  1  0  0  0  0
 28 44  1  0  0  0  0
 28 51  1  0  0  0  0
 28 54  1  0  0  0  0
 29 41  2  0  0  0  0
 29 56  1  0  0  0  0
 30 51  2  0  0  0  0
 30 55  1  0  0  0  0
 31 50  1  0  0  0  0
 31 56  2  0  0  0  0
 32 50  1  0  0  0  0
 32101  1  0  0  0  0
 32102  1  0  0  0  0
 33 60  1  0  0  0  0
 33 62  1  0  0  0  0
 33104  1  0  0  0  0
 34 64  1  0  0  0  0
 34 67  2  0  0  0  0
 35 68  1  0  0  0  0
 35 70  1  0  0  0  0
 35113  1  0  0  0  0
 36 37  1  0  0  0  0
 36 38  1  0  0  0  0
 36 72  1  0  0  0  0
 37 39  1  0  0  0  0
 37 73  1  0  0  0  0
 38 40  1  0  0  0  0
 38 74  1  0  0  0  0
 39 75  1  0  0  0  0
 40 76  1  0  0  0  0
 40 77  1  0  0  0  0
 41 43  1  0  0  0  0
 42 79  1  0  0  0  0
 43 50  2  0  0  0  0
 44 45  1  0  0  0  0
 44 48  2  0  0  0  0
 45 46  1  0  0  0  0
 45 80  1  0  0  0  0
 45 81  1  0  0  0  0
 46 47  1  0  0  0  0
 46 82  1  0  0  0  0
 46 83  1  0  0  0  0
 47 48  1  0  0  0  0
 47 84  1  0  0  0  0
 47 85  1  0  0  0  0
 49 52  1  0  0  0  0
 49 53  1  0  0  0  0
 49 57  1  0  0  0  0
 49 58  1  0  0  0  0
 52 60  1  0  0  0  0
 52 86  1  0  0  0  0
 53 87  1  0  0  0  0
 53 88  1  0  0  0  0
 54 55  2  0  0  0  0
 54 89  1  0  0  0  0
 55 59  1  0  0  0  0
 56 92  1  0  0  0  0
 57 93  1  0  0  0  0
 57 94  1  0  0  0  0
 57 95  1  0  0  0  0
 58 96  1  0  0  0  0
 58 97  1  0  0  0  0
 58 98  1  0  0  0  0
 59 61  1  0  0  0  0
 59 99  1  0  0  0  0
 61 64  2  0  0  0  0
 61 65  1  0  0  0  0
 62 66  1  0  0  0  0
 62105  1  0  0  0  0
 62106  1  0  0  0  0
 63 67  1  0  0  0  0
 63108  1  0  0  0  0
 63109  1  0  0  0  0
 64110  1  0  0  0  0
 66 68  1  0  0  0  0
 66111  1  0  0  0  0
 66112  1  0  0  0  0
 67 69  1  0  0  0  0
 70 71  1  0  0  0  0
 70115  1  0  0  0  0
 70116  1  0  0  0  0
 71117  1  0  0  0  0
 71118  1  0  0  0  0
M  END
> <PUBCHEM_COMPOUND_CID>
155489663

> <PUBCHEM_COMPOUND_CANONICALIZED>
1

> <PUBCHEM_CACTVS_COMPLEXITY>
2210

> <PUBCHEM_CACTVS_HBOND_ACCEPTOR>
28

> <PUBCHEM_CACTVS_HBOND_DONOR>
10

> <PUBCHEM_CACTVS_ROTATABLE_BOND>
23

> <PUBCHEM_CACTVS_SUBSKEYS>
AAADcfB//gNgAAAAAAAAAAAAAAAAAeLFiRAsAAAABAAWLFgB/gAAHgQQCCAADhzl1wav+b/MHxisQxf3fIKA8K1xGrgBWLV4dFiDfFpg2UCeRAgvlgL7WOL+MQIJAAAAAAAAAAAAAAAAAAAAAAAAAACAAA==

> <PUBCHEM_IUPAC_OPENEYE_NAME>
3-[2-[3-[[4-[[[5-(6-aminopurin-9-yl)-4-hydroxy-3-phosphonooxy-tetrahydrofuran-2-yl]methoxy-hydroxy-phosphoryl]oxy-hydroxy-phosphoryl]oxy-2-hydroxy-3,3-dimethyl-butanoyl]amino]propanoylamino]ethylsulfanylcarbonyl]-7-(7-thia-1,9-diazatricyclo[6.3.0.02,6]undeca-2(6),8,10-trien-10-yl)-2,7-dihydro-1,4-thiazepine-6-carboxylic acid

> <PUBCHEM_IUPAC_CAS_NAME>
3-[[2-[[3-[[4-[[[5-(6-aminopurin-9-yl)-4-hydroxy-3-phosphonooxy-2-oxolanyl]methoxy-hydroxyphosphoryl]oxy-hydroxyphosphoryl]oxy-2-hydroxy-3,3-dimethyl-1-oxobutyl]amino]-1-oxopropyl]amino]ethylthio]-oxomethyl]-7-(7-thia-1,9-diazatricyclo[6.3.0.02,6]undeca-2(6),8,10-trien-10-yl)-2,7-dihydro-1,4-thiazepine-6-carboxylic acid

> <PUBCHEM_IUPAC_NAME_MARKUP>
3-[2-[3-[[4-[[[5-(6-aminopurin-9-yl)-4-hydroxy-3-phosphonooxyoxolan-2-yl]methoxy-hydroxyphosphoryl]oxy-hydroxyphosphoryl]oxy-2-hydroxy-3,3-dimethylbutanoyl]amino]propanoylamino]ethylsulfanylcarbonyl]-7-(7-thia-1,9-diazatricyclo[6.3.0.0<SUP>2,6</SUP>]undeca-2(6),8,10-trien-10-yl)-2,7-dihydro-1,4-thiazepine-6-carboxylic acid

> <PUBCHEM_IUPAC_NAME>
3-[2-[3-[[4-[[[5-(6-aminopurin-9-yl)-4-hydroxy-3-phosphonooxyoxolan-2-yl]methoxy-hydroxyphosphoryl]oxy-hydroxyphosphoryl]oxy-2-hydroxy-3,3-dimethylbutanoyl]amino]propanoylamino]ethylsulfanylcarbonyl]-7-(7-thia-1,9-diazatricyclo[6.3.0.02,6]undeca-2(6),8,10-trien-10-yl)-2,7-dihydro-1,4-thiazepine-6-carboxylic acid

> <PUBCHEM_IUPAC_SYSTEMATIC_NAME>
3-[2-[3-[[4-[[[5-(6-aminopurin-9-yl)-4-oxidanyl-3-phosphonooxy-oxolan-2-yl]methoxy-oxidanyl-phosphoryl]oxy-oxidanyl-phosphoryl]oxy-3,3-dimethyl-2-oxidanyl-butanoyl]amino]propanoylamino]ethylsulfanylcarbonyl]-7-(7-thia-1,9-diazatricyclo[6.3.0.02,6]undeca-2(6),8,10-trien-10-yl)-2,7-dihydro-1,4-thiazepine-6-carboxylic acid

> <PUBCHEM_IUPAC_TRADITIONAL_NAME>
3-[2-[3-[[4-[[(5-adenin-9-yl-4-hydroxy-3-phosphonooxy-tetrahydrofuran-2-yl)methoxy-hydroxy-phosphoryl]oxy-hydroxy-phosphoryl]oxy-2-hydroxy-3,3-dimethyl-butanoyl]amino]propanoylamino]ethylthio]carbonyl-7-(7-thia-1,9-diazatricyclo[6.3.0.02,6]undeca-2(6),8,10-trien-10-yl)-2,7-dihydro-1,4-thiazepine-6-carboxylic acid

> <PUBCHEM_IUPAC_INCHI>
InChI=1S/C36H47N10O19P3S3/c1-36(2,14-62-68(59,60)65-67(57,58)61-12-21-26(64-66(54,55)56)25(48)32(63-21)46-16-43-24-29(37)41-15-42-30(24)46)28(49)31(50)39-7-6-23(47)38-8-9-69-34(53)19-13-70-27(17(10-40-19)33(51)52)18-11-45-20-4-3-5-22(20)71-35(45)44-18/h10-11,15-16,21,25-28,32,48-49H,3-9,12-14H2,1-2H3,(H,38,47)(H,39,50)(H,51,52)(H,57,58)(H,59,60)(H2,37,41,42)(H2,54,55,56)

> <PUBCHEM_IUPAC_INCHIKEY>
XZOAKPCOBPQWTN-UHFFFAOYSA-N

> <PUBCHEM_XLOGP3_AA>
-3.4

> <PUBCHEM_EXACT_MASS>
1112.13939382

> <PUBCHEM_MOLECULAR_FORMULA>
C36H47N10O19P3S3

> <PUBCHEM_MOLECULAR_WEIGHT>
1112.9

> <PUBCHEM_OPENEYE_CAN_SMILES>
CC(C)(COP(=O)(O)OP(=O)(O)OCC1C(C(C(O1)N2C=NC3=C(N=CN=C32)N)O)OP(=O)(O)O)C(C(=O)NCCC(=O)NCCSC(=O)C4=NC=C(C(SC4)C5=CN6C7=C(CCC7)SC6=N5)C(=O)O)O

> <PUBCHEM_OPENEYE_ISO_SMILES>
CC(C)(COP(=O)(O)OP(=O)(O)OCC1C(C(C(O1)N2C=NC3=C(N=CN=C32)N)O)OP(=O)(O)O)C(C(=O)NCCC(=O)NCCSC(=O)C4=NC=C(C(SC4)C5=CN6C7=C(CCC7)SC6=N5)C(=O)O)O

> <PUBCHEM_CACTVS_TPSA>
509

> <PUBCHEM_MONOISOTOPIC_WEIGHT>
1112.13939382

> <PUBCHEM_TOTAL_CHARGE>
0

> <PUBCHEM_HEAVY_ATOM_COUNT>
71

> <PUBCHEM_ATOM_DEF_STEREO_COUNT>
0

> <PUBCHEM_ATOM_UDEF_STEREO_COUNT>
6

> <PUBCHEM_BOND_DEF_STEREO_COUNT>
0

> <PUBCHEM_BOND_UDEF_STEREO_COUNT>
0

> <PUBCHEM_ISOTOPIC_ATOM_COUNT>
0

> <PUBCHEM_COMPONENT_COUNT>
1

> <PUBCHEM_CACTVS_TAUTO_COUNT>
-1

> <PUBCHEM_COORDINATE_TYPE>
1
5
255

> <PUBCHEM_BONDANNOTATIONS>
1  48  8
1  51  8
52  18  3
39  26  3
26  41  8
26  42  8
27  42  8
27  43  8
28  44  8
28  51  8
28  54  8
29  41  8
29  56  8
30  51  8
30  55  8
31  50  8
31  56  8
38  40  3
41  43  8
43  50  8
44  48  8
54  55  8
59  55  3
36  8  3
37  9  3

$$$$
155489674
  -OEChem-03012215082D

128134  0     1  0  0  0  0  0999 V2000
    6.3981   -8.5174    0.0000 S   0  0  0  0  0  0  0  0  0  0  0  0
    6.3981   -5.5174    0.0000 S   0  0  0  0  0  0  0  0  0  0  0  0
   13.7616   10.6244    0.0000 P   0  0  0  0  0  0  0  0  0  0  0  0
   12.4603    5.9826    0.0000 P   0  0  3  0  0  0  0  0  0  0  0  0
   11.5942    4.4826    0.0000 P   0  0  3  0  0  0  0  0  0  0  0  0
   15.1059    7.5759    0.0000 O   0  0  0  0  0  0  0  0  0  0  0  0
   13.5537    9.6462    0.0000 O   0  0  0  0  0  0  0  0  0  0  0  0
   15.6817   10.0986    0.0000 O   0  0  0  0  0  0  0  0  0  0  0  0
   13.3263    6.4826    0.0000 O   0  0  0  0  0  0  0  0  0  0  0  0
   13.9695   11.6025    0.0000 O   0  0  0  0  0  0  0  0  0  0  0  0
   12.7835   10.8323    0.0000 O   0  0  0  0  0  0  0  0  0  0  0  0
   11.5942    5.4826    0.0000 O   0  0  0  0  0  0  0  0  0  0  0  0
   14.7398   10.4165    0.0000 O   0  0  0  0  0  0  0  0  0  0  0  0
   11.9603    6.8486    0.0000 O   0  0  0  0  0  0  0  0  0  0  0  0
   11.5942    3.4826    0.0000 O   0  0  0  0  0  0  0  0  0  0  0  0
   12.9603    5.1166    0.0000 O   0  0  0  0  0  0  0  0  0  0  0  0
    5.8981   -9.3834    0.0000 O   0  0  0  0  0  0  0  0  0  0  0  0
    6.8981   -7.6514    0.0000 O   0  0  0  0  0  0  0  0  0  0  0  0
   11.5942    0.4826    0.0000 O   0  0  0  0  0  0  0  0  0  0  0  0
    7.2641   -7.0174    0.0000 O   0  0  0  0  0  0  0  0  0  0  0  0
   12.5942    4.4826    0.0000 O   0  0  0  0  0  0  0  0  0  0  0  0
   10.5942    4.4826    0.0000 O   0  0  0  0  0  0  0  0  0  0  0  0
    8.9962    0.9826    0.0000 O   0  0  0  0  0  0  0  0  0  0  0  0
    7.2641   -2.0174    0.0000 O   0  0  0  0  0  0  0  0  0  0  0  0
   16.7695    8.2145    0.0000 N   0  0  0  0  0  0  0  0  0  0  0  0
    5.5321   -8.0174    0.0000 N   0  0  3  0  0  0  0  0  0  0  0  0
   18.2387    7.5573    0.0000 N   0  0  0  0  0  0  0  0  0  0  0  0
   17.3312    9.9485    0.0000 N   0  0  0  0  0  0  0  0  0  0  0  0
   19.0541   10.1266    0.0000 N   0  0  0  0  0  0  0  0  0  0  0  0
   20.0698    8.7236    0.0000 N   0  0  0  0  0  0  0  0  0  0  0  0
    9.8622   -0.5174    0.0000 N   0  0  0  0  0  0  0  0  0  0  0  0
    8.1301   -3.5174    0.0000 N   0  0  0  0  0  0  0  0  0  0  0  0
   14.2968    8.9771    0.0000 C   0  0  3  0  0  0  0  0  0  0  0  0
   15.2750    9.1850    0.0000 C   0  0  3  0  0  0  0  0  0  0  0  0
   14.1923    7.9826    0.0000 C   0  0  3  0  0  0  0  0  0  0  0  0
   15.7750    8.3190    0.0000 C   0  0  3  0  0  0  0  0  0  0  0  0
   13.3263    7.4826    0.0000 C   0  0  0  0  0  0  0  0  0  0  0  0
   17.4340    8.9538    0.0000 C   0  0  0  0  0  0  0  0  0  0  0  0
   17.2658    7.3532    0.0000 C   0  0  0  0  0  0  0  0  0  0  0  0
   18.3469    8.5455    0.0000 C   0  0  0  0  0  0  0  0  0  0  0  0
    5.5321   -7.0174    0.0000 C   0  0  3  0  0  0  0  0  0  0  0  0
    4.6660   -6.5174    0.0000 C   0  0  0  0  0  0  0  0  0  0  0  0
    4.6660   -8.5174    0.0000 C   0  0  0  0  0  0  0  0  0  0  0  0
    3.8000   -7.0174    0.0000 C   0  0  0  0  0  0  0  0  0  0  0  0
    3.8000   -8.0174    0.0000 C   0  0  0  0  0  0  0  0  0  0  0  0
   10.7282    1.9826    0.0000 C   0  0  0  0  0  0  0  0  0  0  0  0
   19.1569    9.1319    0.0000 C   0  0  0  0  0  0  0  0  0  0  0  0
    6.3981   -6.5174    0.0000 C   0  0  0  0  0  0  0  0  0  0  0  0
   10.7282    0.9826    0.0000 C   0  0  3  0  0  0  0  0  0  0  0  0
    2.9061   -6.4827    0.0000 C   0  0  0  0  0  0  0  0  0  0  0  0
   10.7282    2.9826    0.0000 C   0  0  0  0  0  0  0  0  0  0  0  0
    2.9061   -8.5521    0.0000 C   0  0  0  0  0  0  0  0  0  0  0  0
    7.2641   -9.0174    0.0000 C   0  0  0  0  0  0  0  0  0  0  0  0
   18.1413   10.5349    0.0000 C   0  0  0  0  0  0  0  0  0  0  0  0
   11.7282    1.9826    0.0000 C   0  0  0  0  0  0  0  0  0  0  0  0
    9.7282    1.9826    0.0000 C   0  0  0  0  0  0  0  0  0  0  0  0
    2.0000   -6.9966    0.0000 C   0  0  0  0  0  0  0  0  0  0  0  0
    2.0000   -8.0382    0.0000 C   0  0  0  0  0  0  0  0  0  0  0  0
    9.8622    0.4826    0.0000 C   0  0  0  0  0  0  0  0  0  0  0  0
    7.2641  -10.0174    0.0000 C   0  0  0  0  0  0  0  0  0  0  0  0
    8.1301   -8.5174    0.0000 C   0  0  0  0  0  0  0  0  0  0  0  0
    7.2641   -5.0174    0.0000 C   0  0  0  0  0  0  0  0  0  0  0  0
    8.1301  -10.5174    0.0000 C   0  0  0  0  0  0  0  0  0  0  0  0
    8.9962   -9.0174    0.0000 C   0  0  0  0  0  0  0  0  0  0  0  0
    8.9962  -10.0174    0.0000 C   0  0  0  0  0  0  0  0  0  0  0  0
    7.2641   -4.0174    0.0000 C   0  0  0  0  0  0  0  0  0  0  0  0
    8.9962   -1.0174    0.0000 C   0  0  0  0  0  0  0  0  0  0  0  0
    8.9962   -2.0174    0.0000 C   0  0  0  0  0  0  0  0  0  0  0  0
    9.8622  -10.5174    0.0000 C   0  0  0  0  0  0  0  0  0  0  0  0
    8.1301   -2.5174    0.0000 C   0  0  0  0  0  0  0  0  0  0  0  0
   10.7282  -10.0174    0.0000 C   0  0  0  0  0  0  0  0  0  0  0  0
    9.8622  -11.5174    0.0000 C   0  0  0  0  0  0  0  0  0  0  0  0
   11.5942  -10.5174    0.0000 C   0  0  0  0  0  0  0  0  0  0  0  0
   10.7282  -12.0174    0.0000 C   0  0  0  0  0  0  0  0  0  0  0  0
   11.5942  -11.5174    0.0000 C   0  0  0  0  0  0  0  0  0  0  0  0
   14.4573    9.5760    0.0000 H   0  0  0  0  0  0  0  0  0  0  0  0
   15.8941    9.2175    0.0000 H   0  0  0  0  0  0  0  0  0  0  0  0
   14.2248    7.3634    0.0000 H   0  0  0  0  0  0  0  0  0  0  0  0
   15.9972    7.7402    0.0000 H   0  0  0  0  0  0  0  0  0  0  0  0
   13.1142    8.0652    0.0000 H   0  0  0  0  0  0  0  0  0  0  0  0
   12.7157    7.3749    0.0000 H   0  0  0  0  0  0  0  0  0  0  0  0
   15.3173   10.6002    0.0000 H   0  0  0  0  0  0  0  0  0  0  0  0
   17.0126    6.7872    0.0000 H   0  0  0  0  0  0  0  0  0  0  0  0
    6.0690   -7.3274    0.0000 H   0  0  0  0  0  0  0  0  0  0  0  0
    5.0646   -6.0425    0.0000 H   0  0  0  0  0  0  0  0  0  0  0  0
    4.2675   -6.0425    0.0000 H   0  0  0  0  0  0  0  0  0  0  0  0
    4.2675   -8.9924    0.0000 H   0  0  0  0  0  0  0  0  0  0  0  0
    5.0646   -8.9924    0.0000 H   0  0  0  0  0  0  0  0  0  0  0  0
   11.2651    1.2926    0.0000 H   0  0  0  0  0  0  0  0  0  0  0  0
    2.9132   -5.8628    0.0000 H   0  0  0  0  0  0  0  0  0  0  0  0
   10.5162    3.5652    0.0000 H   0  0  0  0  0  0  0  0  0  0  0  0
   10.1176    2.8749    0.0000 H   0  0  0  0  0  0  0  0  0  0  0  0
    2.9132   -9.1720    0.0000 H   0  0  0  0  0  0  0  0  0  0  0  0
   13.5088   12.0174    0.0000 H   0  0  0  0  0  0  0  0  0  0  0  0
   12.3686   10.3716    0.0000 H   0  0  0  0  0  0  0  0  0  0  0  0
   18.0775   11.1516    0.0000 H   0  0  0  0  0  0  0  0  0  0  0  0
   11.7282    1.3626    0.0000 H   0  0  0  0  0  0  0  0  0  0  0  0
   12.3482    1.9826    0.0000 H   0  0  0  0  0  0  0  0  0  0  0  0
   11.7282    2.6026    0.0000 H   0  0  0  0  0  0  0  0  0  0  0  0
    9.7282    2.6026    0.0000 H   0  0  0  0  0  0  0  0  0  0  0  0
    9.1082    1.9826    0.0000 H   0  0  0  0  0  0  0  0  0  0  0  0
    9.7282    1.3626    0.0000 H   0  0  0  0  0  0  0  0  0  0  0  0
    1.4643   -6.6845    0.0000 H   0  0  0  0  0  0  0  0  0  0  0  0
    1.4643   -8.3503    0.0000 H   0  0  0  0  0  0  0  0  0  0  0  0
   11.3403    6.8486    0.0000 H   0  0  0  0  0  0  0  0  0  0  0  0
   20.5720    9.0871    0.0000 H   0  0  0  0  0  0  0  0  0  0  0  0
   20.1335    8.1068    0.0000 H   0  0  0  0  0  0  0  0  0  0  0  0
    6.7272  -10.3274    0.0000 H   0  0  0  0  0  0  0  0  0  0  0  0
    8.1301   -7.8974    0.0000 H   0  0  0  0  0  0  0  0  0  0  0  0
    7.4762   -5.6000    0.0000 H   0  0  0  0  0  0  0  0  0  0  0  0
    7.8747   -4.9097    0.0000 H   0  0  0  0  0  0  0  0  0  0  0  0
   12.1312    0.7926    0.0000 H   0  0  0  0  0  0  0  0  0  0  0  0
    8.1301  -11.1374    0.0000 H   0  0  0  0  0  0  0  0  0  0  0  0
    9.5331   -8.7074    0.0000 H   0  0  0  0  0  0  0  0  0  0  0  0
   10.3991   -0.8274    0.0000 H   0  0  0  0  0  0  0  0  0  0  0  0
    7.0521   -3.4348    0.0000 H   0  0  0  0  0  0  0  0  0  0  0  0
    6.6535   -4.1251    0.0000 H   0  0  0  0  0  0  0  0  0  0  0  0
    8.7841   -0.4348    0.0000 H   0  0  0  0  0  0  0  0  0  0  0  0
    8.3856   -1.1251    0.0000 H   0  0  0  0  0  0  0  0  0  0  0  0
   12.9042    3.9457    0.0000 H   0  0  0  0  0  0  0  0  0  0  0  0
    9.2082   -2.6000    0.0000 H   0  0  0  0  0  0  0  0  0  0  0  0
    9.6067   -1.9097    0.0000 H   0  0  0  0  0  0  0  0  0  0  0  0
    8.6671   -3.8274    0.0000 H   0  0  0  0  0  0  0  0  0  0  0  0
   10.7282   -9.3974    0.0000 H   0  0  0  0  0  0  0  0  0  0  0  0
    9.3252  -11.8274    0.0000 H   0  0  0  0  0  0  0  0  0  0  0  0
   12.1312  -10.2074    0.0000 H   0  0  0  0  0  0  0  0  0  0  0  0
   10.7282  -12.6374    0.0000 H   0  0  0  0  0  0  0  0  0  0  0  0
   12.1312  -11.8274    0.0000 H   0  0  0  0  0  0  0  0  0  0  0  0
  1 17  2  0  0  0  0
  1 18  2  0  0  0  0
  1 26  1  0  0  0  0
  1 53  1  0  0  0  0
  2 48  1  0  0  0  0
  2 62  1  0  0  0  0
  3  7  1  0  0  0  0
  3 10  1  0  0  0  0
  3 11  1  0  0  0  0
  3 13  2  0  0  0  0
  4  9  1  0  0  0  0
  4 12  1  0  0  0  0
  4 14  1  0  0  0  0
  4 16  2  0  0  0  0
  5 12  1  0  0  0  0
  5 15  1  0  0  0  0
  5 21  1  0  0  0  0
  5 22  2  0  0  0  0
  6 35  1  0  0  0  0
  6 36  1  0  0  0  0
  7 33  1  0  0  0  0
  8 34  1  0  0  0  0
  8 82  1  0  0  0  0
  9 37  1  0  0  0  0
 10 94  1  0  0  0  0
 11 95  1  0  0  0  0
 14105  1  0  0  0  0
 15 51  1  0  0  0  0
 19 49  1  0  0  0  0
 19112  1  0  0  0  0
 20 48  2  0  0  0  0
 21120  1  0  0  0  0
 23 59  2  0  0  0  0
 24 70  2  0  0  0  0
 25 36  1  0  0  0  0
 25 38  1  0  0  0  0
 25 39  1  0  0  0  0
 26 41  1  0  0  0  0
 26 43  1  0  0  0  0
 27 39  2  0  0  0  0
 27 40  1  0  0  0  0
 28 38  2  0  0  0  0
 28 54  1  0  0  0  0
 29 47  1  0  0  0  0
 29 54  2  0  0  0  0
 30 47  1  0  0  0  0
 30106  1  0  0  0  0
 30107  1  0  0  0  0
 31 59  1  0  0  0  0
 31 67  1  0  0  0  0
 31115  1  0  0  0  0
 32 66  1  0  0  0  0
 32 70  1  0  0  0  0
 32123  1  0  0  0  0
 33 34  1  0  0  0  0
 33 35  1  0  0  0  0
 33 76  1  0  0  0  0
 34 36  1  0  0  0  0
 34 77  1  0  0  0  0
 35 37  1  0  0  0  0
 35 78  1  0  0  0  0
 36 79  1  0  0  0  0
 37 80  1  0  0  0  0
 37 81  1  0  0  0  0
 38 40  1  0  0  0  0
 39 83  1  0  0  0  0
 40 47  2  0  0  0  0
 41 42  1  0  0  0  0
 41 48  1  0  0  0  0
 41 84  1  0  0  0  0
 42 44  1  0  0  0  0
 42 85  1  0  0  0  0
 42 86  1  0  0  0  0
 43 45  1  0  0  0  0
 43 87  1  0  0  0  0
 43 88  1  0  0  0  0
 44 45  1  0  0  0  0
 44 50  2  0  0  0  0
 45 52  2  0  0  0  0
 46 49  1  0  0  0  0
 46 51  1  0  0  0  0
 46 55  1  0  0  0  0
 46 56  1  0  0  0  0
 49 59  1  0  0  0  0
 49 89  1  0  0  0  0
 50 57  1  0  0  0  0
 50 90  1  0  0  0  0
 51 91  1  0  0  0  0
 51 92  1  0  0  0  0
 52 58  1  0  0  0  0
 52 93  1  0  0  0  0
 53 60  2  0  0  0  0
 53 61  1  0  0  0  0
 54 96  1  0  0  0  0
 55 97  1  0  0  0  0
 55 98  1  0  0  0  0
 55 99  1  0  0  0  0
 56100  1  0  0  0  0
 56101  1  0  0  0  0
 56102  1  0  0  0  0
 57 58  2  0  0  0  0
 57103  1  0  0  0  0
 58104  1  0  0  0  0
 60 63  1  0  0  0  0
 60108  1  0  0  0  0
 61 64  2  0  0  0  0
 61109  1  0  0  0  0
 62 66  1  0  0  0  0
 62110  1  0  0  0  0
 62111  1  0  0  0  0
 63 65  2  0  0  0  0
 63113  1  0  0  0  0
 64 65  1  0  0  0  0
 64114  1  0  0  0  0
 65 69  1  0  0  0  0
 66116  1  0  0  0  0
 66117  1  0  0  0  0
 67 68  1  0  0  0  0
 67118  1  0  0  0  0
 67119  1  0  0  0  0
 68 70  1  0  0  0  0
 68121  1  0  0  0  0
 68122  1  0  0  0  0
 69 71  2  0  0  0  0
 69 72  1  0  0  0  0
 71 73  1  0  0  0  0
 71124  1  0  0  0  0
 72 74  2  0  0  0  0
 72125  1  0  0  0  0
 73 75  2  0  0  0  0
 73126  1  0  0  0  0
 74 75  1  0  0  0  0
 74127  1  0  0  0  0
 75128  1  0  0  0  0
M  END
> <PUBCHEM_COMPOUND_CID>
155489674

> <PUBCHEM_COMPOUND_CANONICALIZED>
1

> <PUBCHEM_CACTVS_COMPLEXITY>
2220

> <PUBCHEM_CACTVS_HBOND_ACCEPTOR>
25

> <PUBCHEM_CACTVS_HBOND_DONOR>
9

> <PUBCHEM_CACTVS_ROTATABLE_BOND>
24

> <PUBCHEM_CACTVS_SUBSKEYS>
AAADcfB//gNgAAAAAAAAAAAAAAAAAWJAAAA8eMECAAAAAFix/AAAHgQQSCAADjzl3wa38b/MFxqoQydzdPLCgD0xELAJ2LnoVJiLeDrg2XGeZAhvlgL7iCf6uMKPkAAAAAAQAAAgAAAAACAAAAAAAAAAAA==

> <PUBCHEM_IUPAC_OPENEYE_NAME>
S-[2-[3-[[4-[[[5-(6-aminopurin-9-yl)-4-hydroxy-3-phosphonooxy-tetrahydrofuran-2-yl]methoxy-hydroxy-phosphoryl]oxy-hydroxy-phosphoryl]oxy-2-hydroxy-3,3-dimethyl-butanoyl]amino]propanoylamino]ethyl] 2-(4-phenylphenyl)sulfonyl-3,4-dihydro-1H-isoquinoline-3-carbothioate

> <PUBCHEM_IUPAC_CAS_NAME>
2-(4-phenylphenyl)sulfonyl-3,4-dihydro-1H-isoquinoline-3-carbothioic acid S-[2-[[3-[[4-[[[5-(6-aminopurin-9-yl)-4-hydroxy-3-phosphonooxy-2-oxolanyl]methoxy-hydroxyphosphoryl]oxy-hydroxyphosphoryl]oxy-2-hydroxy-3,3-dimethyl-1-oxobutyl]amino]-1-oxopropyl]amino]ethyl] ester

> <PUBCHEM_IUPAC_NAME_MARKUP>
<I>S</I>-[2-[3-[[4-[[[5-(6-aminopurin-9-yl)-4-hydroxy-3-phosphonooxyoxolan-2-yl]methoxy-hydroxyphosphoryl]oxy-hydroxyphosphoryl]oxy-2-hydroxy-3,3-dimethylbutanoyl]amino]propanoylamino]ethyl] 2-(4-phenylphenyl)sulfonyl-3,4-dihydro-1<I>H</I>-isoquinoline-3-carbothioate

> <PUBCHEM_IUPAC_NAME>
S-[2-[3-[[4-[[[5-(6-aminopurin-9-yl)-4-hydroxy-3-phosphonooxyoxolan-2-yl]methoxy-hydroxyphosphoryl]oxy-hydroxyphosphoryl]oxy-2-hydroxy-3,3-dimethylbutanoyl]amino]propanoylamino]ethyl] 2-(4-phenylphenyl)sulfonyl-3,4-dihydro-1H-isoquinoline-3-carbothioate

> <PUBCHEM_IUPAC_SYSTEMATIC_NAME>
S-[2-[3-[[4-[[[5-(6-aminopurin-9-yl)-4-oxidanyl-3-phosphonooxy-oxolan-2-yl]methoxy-oxidanyl-phosphoryl]oxy-oxidanyl-phosphoryl]oxy-3,3-dimethyl-2-oxidanyl-butanoyl]amino]propanoylamino]ethyl] 2-(4-phenylphenyl)sulfonyl-3,4-dihydro-1H-isoquinoline-3-carbothioate

> <PUBCHEM_IUPAC_TRADITIONAL_NAME>
2-(4-phenylphenyl)sulfonyl-3,4-dihydro-1H-isoquinoline-3-carbothioic acid S-[2-[3-[[4-[[(5-adenin-9-yl-4-hydroxy-3-phosphonooxy-tetrahydrofuran-2-yl)methoxy-hydroxy-phosphoryl]oxy-hydroxy-phosphoryl]oxy-2-hydroxy-3,3-dimethyl-butanoyl]amino]propanoylamino]ethyl] ester

> <PUBCHEM_IUPAC_INCHI>
InChI=1S/C43H53N8O19P3S2/c1-43(2,23-67-73(62,63)70-72(60,61)66-22-32-36(69-71(57,58)59)35(53)41(68-32)50-25-49-34-38(44)47-24-48-39(34)50)37(54)40(55)46-17-16-33(52)45-18-19-74-42(56)31-20-28-10-6-7-11-29(28)21-51(31)75(64,65)30-14-12-27(13-15-30)26-8-4-3-5-9-26/h3-15,24-25,31-32,35-37,41,53-54H,16-23H2,1-2H3,(H,45,52)(H,46,55)(H,60,61)(H,62,63)(H2,44,47,48)(H2,57,58,59)

> <PUBCHEM_IUPAC_INCHIKEY>
YHGGWEKBKRUTAG-UHFFFAOYSA-N

> <PUBCHEM_XLOGP3_AA>
-1.6

> <PUBCHEM_EXACT_MASS>
1142.20812483

> <PUBCHEM_MOLECULAR_FORMULA>
C43H53N8O19P3S2

> <PUBCHEM_MOLECULAR_WEIGHT>
1143.0

> <PUBCHEM_OPENEYE_CAN_SMILES>
CC(C)(COP(=O)(O)OP(=O)(O)OCC1C(C(C(O1)N2C=NC3=C(N=CN=C32)N)O)OP(=O)(O)O)C(C(=O)NCCC(=O)NCCSC(=O)C4CC5=CC=CC=C5CN4S(=O)(=O)C6=CC=C(C=C6)C7=CC=CC=C7)O

> <PUBCHEM_OPENEYE_ISO_SMILES>
CC(C)(COP(=O)(O)OP(=O)(O)OCC1C(C(C(O1)N2C=NC3=C(N=CN=C32)N)O)OP(=O)(O)O)C(C(=O)NCCC(=O)NCCSC(=O)C4CC5=CC=CC=C5CN4S(=O)(=O)C6=CC=C(C=C6)C7=CC=CC=C7)O

> <PUBCHEM_CACTVS_TPSA>
435

> <PUBCHEM_MONOISOTOPIC_WEIGHT>
1142.20812483

> <PUBCHEM_TOTAL_CHARGE>
0

> <PUBCHEM_HEAVY_ATOM_COUNT>
75

> <PUBCHEM_ATOM_DEF_STEREO_COUNT>
0

> <PUBCHEM_ATOM_UDEF_STEREO_COUNT>
6

> <PUBCHEM_BOND_DEF_STEREO_COUNT>
0

> <PUBCHEM_BOND_UDEF_STEREO_COUNT>
0

> <PUBCHEM_ISOTOPIC_ATOM_COUNT>
0

> <PUBCHEM_COMPONENT_COUNT>
1

> <PUBCHEM_CACTVS_TAUTO_COUNT>
-1

> <PUBCHEM_COORDINATE_TYPE>
1
5
255

> <PUBCHEM_BONDANNOTATIONS>
49  19  3
36  25  3
25  38  8
25  39  8
27  39  8
27  40  8
28  38  8
28  54  8
29  47  8
29  54  8
35  37  3
38  40  8
40  47  8
41  48  3
44  45  8
44  50  8
45  52  8
50  57  8
52  58  8
53  60  8
53  61  8
57  58  8
60  63  8
61  64  8
63  65  8
64  65  8
69  71  8
69  72  8
33  7  3
71  73  8
72  74  8
73  75  8
74  75  8
34  8  3

$$$$
155489690
  -OEChem-03012215082D

133138  0     1  0  0  0  0  0999 V2000
   23.9681   -0.2083    0.0000 S   0  0  0  0  0  0  0  0  0  0  0  0
    8.8104    2.4335    0.0000 P   0  0  0  0  0  0  0  0  0  0  0  0
   10.9777   -0.7083    0.0000 P   0  0  3  0  0  0  0  0  0  0  0  0
   12.7098   -0.7083    0.0000 P   0  0  3  0  0  0  0  0  0  0  0  0
    7.4661   -0.6150    0.0000 O   0  0  0  0  0  0  0  0  0  0  0  0
    9.0183    1.4554    0.0000 O   0  0  0  0  0  0  0  0  0  0  0  0
    6.8902    1.9077    0.0000 O   0  0  0  0  0  0  0  0  0  0  0  0
   10.1117   -0.2083    0.0000 O   0  0  0  0  0  0  0  0  0  0  0  0
    8.6024    3.4116    0.0000 O   0  0  0  0  0  0  0  0  0  0  0  0
    9.7885    2.6414    0.0000 O   0  0  0  0  0  0  0  0  0  0  0  0
   11.8438   -1.2083    0.0000 O   0  0  0  0  0  0  0  0  0  0  0  0
    7.8322    2.2256    0.0000 O   0  0  0  0  0  0  0  0  0  0  0  0
   10.4777   -1.5743    0.0000 O   0  0  0  0  0  0  0  0  0  0  0  0
   13.5758   -0.2083    0.0000 O   0  0  0  0  0  0  0  0  0  0  0  0
   11.4777    0.1577    0.0000 O   0  0  0  0  0  0  0  0  0  0  0  0
   16.1739    1.2917    0.0000 O   0  0  0  0  0  0  0  0  0  0  0  0
   12.2098    0.1577    0.0000 O   0  0  0  0  0  0  0  0  0  0  0  0
   13.2098   -1.5743    0.0000 O   0  0  0  0  0  0  0  0  0  0  0  0
   17.0399   -1.2083    0.0000 O   0  0  0  0  0  0  0  0  0  0  0  0
   28.2982    0.2917    0.0000 O   0  0  0  0  0  0  0  0  0  0  0  0
   30.5069    1.5850    0.0000 O   0  0  0  0  0  0  0  0  0  0  0  0
   20.5040   -1.2083    0.0000 O   0  0  0  0  0  0  0  0  0  0  0  0
   24.8341    1.2917    0.0000 O   0  0  0  0  0  0  0  0  0  0  0  0
    5.8025    0.0236    0.0000 N   0  0  0  0  0  0  0  0  0  0  0  0
    4.3333   -0.6336    0.0000 N   0  0  0  0  0  0  0  0  0  0  0  0
    5.2407    1.7576    0.0000 N   0  0  0  0  0  0  0  0  0  0  0  0
    3.5179    1.9357    0.0000 N   0  0  0  0  0  0  0  0  0  0  0  0
    2.5022    0.5327    0.0000 N   0  0  0  0  0  0  0  0  0  0  0  0
   31.8425   -1.5130    0.0000 N   0  0  0  0  0  0  0  0  0  0  0  0
   17.9059    0.2917    0.0000 N   0  0  0  0  0  0  0  0  0  0  0  0
   31.7960    2.7418    0.0000 N   0  0  0  0  0  0  0  0  0  0  0  0
   21.3700    0.2917    0.0000 N   0  0  0  0  0  0  0  0  0  0  0  0
    8.2751    0.7862    0.0000 C   0  0  3  0  0  0  0  0  0  0  0  0
    7.2970    0.9941    0.0000 C   0  0  3  0  0  0  0  0  0  0  0  0
    8.3797   -0.2083    0.0000 C   0  0  3  0  0  0  0  0  0  0  0  0
    6.7970    0.1281    0.0000 C   0  0  3  0  0  0  0  0  0  0  0  0
    9.2457   -0.7083    0.0000 C   0  0  0  0  0  0  0  0  0  0  0  0
    5.1379    0.7629    0.0000 C   0  0  0  0  0  0  0  0  0  0  0  0
    5.3062   -0.8377    0.0000 C   0  0  0  0  0  0  0  0  0  0  0  0
    4.2251    0.3546    0.0000 C   0  0  0  0  0  0  0  0  0  0  0  0
    3.4151    0.9410    0.0000 C   0  0  0  0  0  0  0  0  0  0  0  0
   15.3079   -0.2083    0.0000 C   0  0  0  0  0  0  0  0  0  0  0  0
   14.4418   -0.7083    0.0000 C   0  0  0  0  0  0  0  0  0  0  0  0
    4.4307    2.3440    0.0000 C   0  0  0  0  0  0  0  0  0  0  0  0
   16.1739    0.2917    0.0000 C   0  0  3  0  0  0  0  0  0  0  0  0
   14.8079    0.6577    0.0000 C   0  0  0  0  0  0  0  0  0  0  0  0
   15.8079   -1.0743    0.0000 C   0  0  0  0  0  0  0  0  0  0  0  0
   17.0399   -0.2083    0.0000 C   0  0  0  0  0  0  0  0  0  0  0  0
   31.8425    0.0964    0.0000 C   0  0  0  0  0  0  0  0  0  0  0  0
   30.8963   -1.2083    0.0000 C   0  0  0  0  0  0  0  0  0  0  0  0
   32.4262   -0.7083    0.0000 C   0  0  0  0  0  0  0  0  0  0  0  0
   30.8963   -0.2083    0.0000 C   0  0  0  0  0  0  0  0  0  0  0  0
   32.1532   -2.4636    0.0000 C   0  0  0  0  0  0  0  0  0  0  0  0
   32.1532    1.0470    0.0000 C   0  0  0  0  0  0  0  0  0  0  0  0
   18.7720   -0.2083    0.0000 C   0  0  0  0  0  0  0  0  0  0  0  0
   30.0303    0.2917    0.0000 C   0  0  0  0  0  0  0  0  0  0  0  0
   30.0303   -1.7083    0.0000 C   0  0  0  0  0  0  0  0  0  0  0  0
   33.4262   -0.7083    0.0000 C   0  0  0  0  0  0  0  0  0  0  0  0
   33.1317   -2.6698    0.0000 C   0  0  0  0  0  0  0  0  0  0  0  0
   29.1643   -0.2083    0.0000 C   0  0  0  0  0  0  0  0  0  0  0  0
   29.1643   -1.2083    0.0000 C   0  0  0  0  0  0  0  0  0  0  0  0
   19.6380    0.2917    0.0000 C   0  0  0  0  0  0  0  0  0  0  0  0
   31.4854    1.7913    0.0000 C   0  0  0  0  0  0  0  0  0  0  0  0
   33.4424   -3.6203    0.0000 C   0  0  0  0  0  0  0  0  0  0  0  0
   33.7996   -1.9255    0.0000 C   0  0  0  0  0  0  0  0  0  0  0  0
   20.5040   -0.2083    0.0000 C   0  0  0  0  0  0  0  0  0  0  0  0
   27.4322   -0.2083    0.0000 C   0  0  0  0  0  0  0  0  0  0  0  0
   26.5662    0.2917    0.0000 C   0  0  0  0  0  0  0  0  0  0  0  0
   34.4209   -3.8265    0.0000 C   0  0  0  0  0  0  0  0  0  0  0  0
   34.7781   -2.1317    0.0000 C   0  0  0  0  0  0  0  0  0  0  0  0
   35.0887   -3.0822    0.0000 C   0  0  0  0  0  0  0  0  0  0  0  0
   25.7002   -0.2083    0.0000 C   0  0  0  0  0  0  0  0  0  0  0  0
   22.2361   -0.2083    0.0000 C   0  0  0  0  0  0  0  0  0  0  0  0
   23.1021    0.2917    0.0000 C   0  0  0  0  0  0  0  0  0  0  0  0
   24.8341    0.2917    0.0000 C   0  0  0  0  0  0  0  0  0  0  0  0
    8.8540    0.5640    0.0000 H   0  0  0  0  0  0  0  0  0  0  0  0
    7.6872    1.4760    0.0000 H   0  0  0  0  0  0  0  0  0  0  0  0
    8.3472   -0.8274    0.0000 H   0  0  0  0  0  0  0  0  0  0  0  0
    6.5748   -0.4507    0.0000 H   0  0  0  0  0  0  0  0  0  0  0  0
    8.8472   -1.1832    0.0000 H   0  0  0  0  0  0  0  0  0  0  0  0
    9.6442   -1.1832    0.0000 H   0  0  0  0  0  0  0  0  0  0  0  0
    7.2547    2.4093    0.0000 H   0  0  0  0  0  0  0  0  0  0  0  0
    5.5593   -1.4037    0.0000 H   0  0  0  0  0  0  0  0  0  0  0  0
    9.0632    3.8265    0.0000 H   0  0  0  0  0  0  0  0  0  0  0  0
    9.9801    3.2311    0.0000 H   0  0  0  0  0  0  0  0  0  0  0  0
   14.0433   -1.1832    0.0000 H   0  0  0  0  0  0  0  0  0  0  0  0
   14.8404   -1.1832    0.0000 H   0  0  0  0  0  0  0  0  0  0  0  0
   15.6370    0.6017    0.0000 H   0  0  0  0  0  0  0  0  0  0  0  0
    4.4944    2.9607    0.0000 H   0  0  0  0  0  0  0  0  0  0  0  0
   15.3448    0.9677    0.0000 H   0  0  0  0  0  0  0  0  0  0  0  0
   14.4979    1.1947    0.0000 H   0  0  0  0  0  0  0  0  0  0  0  0
   14.2709    0.3477    0.0000 H   0  0  0  0  0  0  0  0  0  0  0  0
   15.2709   -1.3843    0.0000 H   0  0  0  0  0  0  0  0  0  0  0  0
   16.1179   -1.6113    0.0000 H   0  0  0  0  0  0  0  0  0  0  0  0
   16.3448   -0.7643    0.0000 H   0  0  0  0  0  0  0  0  0  0  0  0
   10.7877   -2.1113    0.0000 H   0  0  0  0  0  0  0  0  0  0  0  0
    2.0000    0.8962    0.0000 H   0  0  0  0  0  0  0  0  0  0  0  0
    2.4385   -0.0841    0.0000 H   0  0  0  0  0  0  0  0  0  0  0  0
   15.6370    1.6017    0.0000 H   0  0  0  0  0  0  0  0  0  0  0  0
   17.9059    0.9117    0.0000 H   0  0  0  0  0  0  0  0  0  0  0  0
   31.5394   -2.5509    0.0000 H   0  0  0  0  0  0  0  0  0  0  0  0
   32.1326   -3.0832    0.0000 H   0  0  0  0  0  0  0  0  0  0  0  0
   12.5198    0.6947    0.0000 H   0  0  0  0  0  0  0  0  0  0  0  0
   32.7001    0.7549    0.0000 H   0  0  0  0  0  0  0  0  0  0  0  0
   32.5358    1.5349    0.0000 H   0  0  0  0  0  0  0  0  0  0  0  0
   18.3734   -0.6832    0.0000 H   0  0  0  0  0  0  0  0  0  0  0  0
   19.1705   -0.6832    0.0000 H   0  0  0  0  0  0  0  0  0  0  0  0
   30.0303    0.9117    0.0000 H   0  0  0  0  0  0  0  0  0  0  0  0
   30.0303   -2.3283    0.0000 H   0  0  0  0  0  0  0  0  0  0  0  0
   33.4262   -1.3283    0.0000 H   0  0  0  0  0  0  0  0  0  0  0  0
   34.0462   -0.7083    0.0000 H   0  0  0  0  0  0  0  0  0  0  0  0
   33.4262   -0.0883    0.0000 H   0  0  0  0  0  0  0  0  0  0  0  0
   28.6273   -1.5183    0.0000 H   0  0  0  0  0  0  0  0  0  0  0  0
   20.0365    0.7666    0.0000 H   0  0  0  0  0  0  0  0  0  0  0  0
   19.2395    0.7666    0.0000 H   0  0  0  0  0  0  0  0  0  0  0  0
   33.0283   -4.0818    0.0000 H   0  0  0  0  0  0  0  0  0  0  0  0
   33.6069   -1.3362    0.0000 H   0  0  0  0  0  0  0  0  0  0  0  0
   27.0337   -0.6832    0.0000 H   0  0  0  0  0  0  0  0  0  0  0  0
   27.8307   -0.6832    0.0000 H   0  0  0  0  0  0  0  0  0  0  0  0
   26.9647    0.7666    0.0000 H   0  0  0  0  0  0  0  0  0  0  0  0
   26.1677    0.7666    0.0000 H   0  0  0  0  0  0  0  0  0  0  0  0
   34.6135   -4.4158    0.0000 H   0  0  0  0  0  0  0  0  0  0  0  0
   35.1921   -1.6702    0.0000 H   0  0  0  0  0  0  0  0  0  0  0  0
   31.3820    3.2032    0.0000 H   0  0  0  0  0  0  0  0  0  0  0  0
   32.4027    2.8696    0.0000 H   0  0  0  0  0  0  0  0  0  0  0  0
   21.3700    0.9117    0.0000 H   0  0  0  0  0  0  0  0  0  0  0  0
   35.6954   -3.2101    0.0000 H   0  0  0  0  0  0  0  0  0  0  0  0
   25.3016   -0.6832    0.0000 H   0  0  0  0  0  0  0  0  0  0  0  0
   26.0987   -0.6832    0.0000 H   0  0  0  0  0  0  0  0  0  0  0  0
   21.8375   -0.6832    0.0000 H   0  0  0  0  0  0  0  0  0  0  0  0
   22.6346   -0.6832    0.0000 H   0  0  0  0  0  0  0  0  0  0  0  0
   23.5006    0.7666    0.0000 H   0  0  0  0  0  0  0  0  0  0  0  0
   22.7036    0.7666    0.0000 H   0  0  0  0  0  0  0  0  0  0  0  0
  1 74  1  0  0  0  0
  1 75  1  0  0  0  0
  2  6  1  0  0  0  0
  2  9  1  0  0  0  0
  2 10  1  0  0  0  0
  2 12  2  0  0  0  0
  3  8  1  0  0  0  0
  3 11  1  0  0  0  0
  3 13  1  0  0  0  0
  3 15  2  0  0  0  0
  4 11  1  0  0  0  0
  4 14  1  0  0  0  0
  4 17  1  0  0  0  0
  4 18  2  0  0  0  0
  5 35  1  0  0  0  0
  5 36  1  0  0  0  0
  6 33  1  0  0  0  0
  7 34  1  0  0  0  0
  7 82  1  0  0  0  0
  8 37  1  0  0  0  0
  9 84  1  0  0  0  0
 10 85  1  0  0  0  0
 13 96  1  0  0  0  0
 14 43  1  0  0  0  0
 16 45  1  0  0  0  0
 16 99  1  0  0  0  0
 17103  1  0  0  0  0
 19 48  2  0  0  0  0
 20 60  1  0  0  0  0
 20 67  1  0  0  0  0
 21 63  2  0  0  0  0
 22 66  2  0  0  0  0
 23 75  2  0  0  0  0
 24 36  1  0  0  0  0
 24 38  1  0  0  0  0
 24 39  1  0  0  0  0
 25 39  2  0  0  0  0
 25 40  1  0  0  0  0
 26 38  2  0  0  0  0
 26 44  1  0  0  0  0
 27 41  1  0  0  0  0
 27 44  2  0  0  0  0
 28 41  1  0  0  0  0
 28 97  1  0  0  0  0
 28 98  1  0  0  0  0
 29 50  1  0  0  0  0
 29 51  1  0  0  0  0
 29 53  1  0  0  0  0
 30 48  1  0  0  0  0
 30 55  1  0  0  0  0
 30100  1  0  0  0  0
 31 63  1  0  0  0  0
 31124  1  0  0  0  0
 31125  1  0  0  0  0
 32 66  1  0  0  0  0
 32 73  1  0  0  0  0
 32126  1  0  0  0  0
 33 34  1  0  0  0  0
 33 35  1  0  0  0  0
 33 76  1  0  0  0  0
 34 36  1  0  0  0  0
 34 77  1  0  0  0  0
 35 37  1  0  0  0  0
 35 78  1  0  0  0  0
 36 79  1  0  0  0  0
 37 80  1  0  0  0  0
 37 81  1  0  0  0  0
 38 40  1  0  0  0  0
 39 83  1  0  0  0  0
 40 41  2  0  0  0  0
 42 43  1  0  0  0  0
 42 45  1  0  0  0  0
 42 46  1  0  0  0  0
 42 47  1  0  0  0  0
 43 86  1  0  0  0  0
 43 87  1  0  0  0  0
 44 89  1  0  0  0  0
 45 48  1  0  0  0  0
 45 88  1  0  0  0  0
 46 90  1  0  0  0  0
 46 91  1  0  0  0  0
 46 92  1  0  0  0  0
 47 93  1  0  0  0  0
 47 94  1  0  0  0  0
 47 95  1  0  0  0  0
 49 51  2  0  0  0  0
 49 52  1  0  0  0  0
 49 54  1  0  0  0  0
 50 52  2  0  0  0  0
 50 57  1  0  0  0  0
 51 58  1  0  0  0  0
 52 56  1  0  0  0  0
 53 59  1  0  0  0  0
 53101  1  0  0  0  0
 53102  1  0  0  0  0
 54 63  1  0  0  0  0
 54104  1  0  0  0  0
 54105  1  0  0  0  0
 55 62  1  0  0  0  0
 55106  1  0  0  0  0
 55107  1  0  0  0  0
 56 60  2  0  0  0  0
 56108  1  0  0  0  0
 57 61  2  0  0  0  0
 57109  1  0  0  0  0
 58110  1  0  0  0  0
 58111  1  0  0  0  0
 58112  1  0  0  0  0
 59 64  2  0  0  0  0
 59 65  1  0  0  0  0
 60 61  1  0  0  0  0
 61113  1  0  0  0  0
 62 66  1  0  0  0  0
 62114  1  0  0  0  0
 62115  1  0  0  0  0
 64 69  1  0  0  0  0
 64116  1  0  0  0  0
 65 70  2  0  0  0  0
 65117  1  0  0  0  0
 67 68  1  0  0  0  0
 67118  1  0  0  0  0
 67119  1  0  0  0  0
 68 72  1  0  0  0  0
 68120  1  0  0  0  0
 68121  1  0  0  0  0
 69 71  2  0  0  0  0
 69122  1  0  0  0  0
 70 71  1  0  0  0  0
 70123  1  0  0  0  0
 71127  1  0  0  0  0
 72 75  1  0  0  0  0
 72128  1  0  0  0  0
 72129  1  0  0  0  0
 73 74  1  0  0  0  0
 73130  1  0  0  0  0
 73131  1  0  0  0  0
 74132  1  0  0  0  0
 74133  1  0  0  0  0
M  END
> <PUBCHEM_COMPOUND_CID>
155489690

> <PUBCHEM_COMPOUND_CANONICALIZED>
1

> <PUBCHEM_CACTVS_COMPLEXITY>
2080

> <PUBCHEM_CACTVS_HBOND_ACCEPTOR>
24

> <PUBCHEM_CACTVS_HBOND_DONOR>
10

> <PUBCHEM_CACTVS_ROTATABLE_BOND>
29

> <PUBCHEM_CACTVS_SUBSKEYS>
AAADcfB//gNAAAAAAAAAAAAAAAAAAWLEgAA8YIAAAAAAAFgB/gAAHgQQCCAADhzl3wa39v/MFxioQydzdIKCiC0xMrAJ2KF+fJiPfvrk/duefCjv1hP76Cf++fOfgEABAAACAAAAgAIAAAQAAAAAAAAAAA==

> <PUBCHEM_IUPAC_OPENEYE_NAME>
S-[2-[3-[[4-[[[5-(6-aminopurin-9-yl)-4-hydroxy-3-phosphonooxy-tetrahydrofuran-2-yl]methoxy-hydroxy-phosphoryl]oxy-hydroxy-phosphoryl]oxy-2-hydroxy-3,3-dimethyl-butanoyl]amino]propanoylamino]ethyl] 4-[3-(2-amino-2-oxo-ethyl)-1-benzyl-2-methyl-indol-5-yl]oxybutanethioate

> <PUBCHEM_IUPAC_CAS_NAME>
4-[[3-(2-amino-2-oxoethyl)-2-methyl-1-(phenylmethyl)-5-indolyl]oxy]butanethioic acid S-[2-[[3-[[4-[[[5-(6-aminopurin-9-yl)-4-hydroxy-3-phosphonooxy-2-oxolanyl]methoxy-hydroxyphosphoryl]oxy-hydroxyphosphoryl]oxy-2-hydroxy-3,3-dimethyl-1-oxobutyl]amino]-1-oxopropyl]amino]ethyl] ester

> <PUBCHEM_IUPAC_NAME_MARKUP>
<I>S</I>-[2-[3-[[4-[[[5-(6-aminopurin-9-yl)-4-hydroxy-3-phosphonooxyoxolan-2-yl]methoxy-hydroxyphosphoryl]oxy-hydroxyphosphoryl]oxy-2-hydroxy-3,3-dimethylbutanoyl]amino]propanoylamino]ethyl] 4-[3-(2-amino-2-oxoethyl)-1-benzyl-2-methylindol-5-yl]oxybutanethioate

> <PUBCHEM_IUPAC_NAME>
S-[2-[3-[[4-[[[5-(6-aminopurin-9-yl)-4-hydroxy-3-phosphonooxyoxolan-2-yl]methoxy-hydroxyphosphoryl]oxy-hydroxyphosphoryl]oxy-2-hydroxy-3,3-dimethylbutanoyl]amino]propanoylamino]ethyl] 4-[3-(2-amino-2-oxoethyl)-1-benzyl-2-methylindol-5-yl]oxybutanethioate

> <PUBCHEM_IUPAC_SYSTEMATIC_NAME>
S-[2-[3-[[4-[[[5-(6-aminopurin-9-yl)-4-oxidanyl-3-phosphonooxy-oxolan-2-yl]methoxy-oxidanyl-phosphoryl]oxy-oxidanyl-phosphoryl]oxy-3,3-dimethyl-2-oxidanyl-butanoyl]amino]propanoylamino]ethyl] 4-[3-(2-azanyl-2-oxidanylidene-ethyl)-2-methyl-1-(phenylmethyl)indol-5-yl]oxybutanethioate

> <PUBCHEM_IUPAC_TRADITIONAL_NAME>
4-[3-(2-amino-2-keto-ethyl)-1-benzyl-2-methyl-indol-5-yl]oxybutanethioic acid S-[2-[3-[[4-[[(5-adenin-9-yl-4-hydroxy-3-phosphonooxy-tetrahydrofuran-2-yl)methoxy-hydroxy-phosphoryl]oxy-hydroxy-phosphoryl]oxy-2-hydroxy-3,3-dimethyl-butanoyl]amino]propanoylamino]ethyl] ester

> <PUBCHEM_IUPAC_INCHI>
InChI=1S/C43H58N9O19P3S/c1-25-28(19-32(44)53)29-18-27(11-12-30(29)51(25)20-26-8-5-4-6-9-26)66-16-7-10-34(55)75-17-15-46-33(54)13-14-47-41(58)38(57)43(2,3)22-68-74(64,65)71-73(62,63)67-21-31-37(70-72(59,60)61)36(56)42(69-31)52-24-50-35-39(45)48-23-49-40(35)52/h4-6,8-9,11-12,18,23-24,31,36-38,42,56-57H,7,10,13-17,19-22H2,1-3H3,(H2,44,53)(H,46,54)(H,47,58)(H,62,63)(H,64,65)(H2,45,48,49)(H2,59,60,61)

> <PUBCHEM_IUPAC_INCHIKEY>
YRROLLGJBLRWRT-UHFFFAOYSA-N

> <PUBCHEM_XLOGP3_AA>
-2.8

> <PUBCHEM_EXACT_MASS>
1129.27825282

> <PUBCHEM_MOLECULAR_FORMULA>
C43H58N9O19P3S

> <PUBCHEM_MOLECULAR_WEIGHT>
1130.0

> <PUBCHEM_OPENEYE_CAN_SMILES>
CC1=C(C2=C(N1CC3=CC=CC=C3)C=CC(=C2)OCCCC(=O)SCCNC(=O)CCNC(=O)C(C(C)(C)COP(=O)(O)OP(=O)(O)OCC4C(C(C(O4)N5C=NC6=C(N=CN=C65)N)O)OP(=O)(O)O)O)CC(=O)N

> <PUBCHEM_OPENEYE_ISO_SMILES>
CC1=C(C2=C(N1CC3=CC=CC=C3)C=CC(=C2)OCCCC(=O)SCCNC(=O)CCNC(=O)C(C(C)(C)COP(=O)(O)OP(=O)(O)OCC4C(C(C(O4)N5C=NC6=C(N=CN=C65)N)O)OP(=O)(O)O)O)CC(=O)N

> <PUBCHEM_CACTVS_TPSA>
446

> <PUBCHEM_MONOISOTOPIC_WEIGHT>
1129.27825282

> <PUBCHEM_TOTAL_CHARGE>
0

> <PUBCHEM_HEAVY_ATOM_COUNT>
75

> <PUBCHEM_ATOM_DEF_STEREO_COUNT>
0

> <PUBCHEM_ATOM_UDEF_STEREO_COUNT>
5

> <PUBCHEM_BOND_DEF_STEREO_COUNT>
0

> <PUBCHEM_BOND_UDEF_STEREO_COUNT>
0

> <PUBCHEM_ISOTOPIC_ATOM_COUNT>
0

> <PUBCHEM_COMPONENT_COUNT>
1

> <PUBCHEM_CACTVS_TAUTO_COUNT>
-1

> <PUBCHEM_COORDINATE_TYPE>
1
5
255

> <PUBCHEM_BONDANNOTATIONS>
45  16  3
36  24  3
24  38  8
24  39  8
25  39  8
25  40  8
26  38  8
26  44  8
27  41  8
27  44  8
29  50  8
29  51  8
35  37  3
38  40  8
40  41  8
49  51  8
49  52  8
50  52  8
50  57  8
52  56  8
56  60  8
57  61  8
59  64  8
59  65  8
33  6  3
60  61  8
64  69  8
65  70  8
69  71  8
34  7  3
70  71  8

$$$$
155489738
  -OEChem-03012215082D

141147  0     1  0  0  0  0  0999 V2000
   21.4481    0.4627    0.0000 S   0  0  0  0  0  0  0  0  0  0  0  0
    5.3548    0.8643    0.0000 P   0  0  0  0  0  0  0  0  0  0  0  0
    8.4752   -0.3755    0.0000 P   0  0  3  0  0  0  0  0  0  0  0  0
   10.1980   -0.1974    0.0000 P   0  0  3  0  0  0  0  0  0  0  0  0
    5.9405   -2.1399    0.0000 O   0  0  0  0  0  0  0  0  0  0  0  0
    4.6844    0.1223    0.0000 O   0  0  0  0  0  0  0  0  0  0  0  0
    3.4026   -1.6355    0.0000 O   0  0  0  0  0  0  0  0  0  0  0  0
    7.6651   -0.9619    0.0000 O   0  0  0  0  0  0  0  0  0  0  0  0
    6.0252    1.6063    0.0000 O   0  0  0  0  0  0  0  0  0  0  0  0
    4.6128    1.5347    0.0000 O   0  0  0  0  0  0  0  0  0  0  0  0
    6.0968    0.1939    0.0000 O   0  0  0  0  0  0  0  0  0  0  0  0
    9.2852    0.2109    0.0000 O   0  0  0  0  0  0  0  0  0  0  0  0
    9.0615   -1.1855    0.0000 O   0  0  0  0  0  0  0  0  0  0  0  0
   11.1109   -0.6057    0.0000 O   0  0  0  0  0  0  0  0  0  0  0  0
    7.8888    0.4346    0.0000 O   0  0  0  0  0  0  0  0  0  0  0  0
   13.8494   -1.8307    0.0000 O   0  0  0  0  0  0  0  0  0  0  0  0
   10.6063    0.7154    0.0000 O   0  0  0  0  0  0  0  0  0  0  0  0
    9.7897   -1.1102    0.0000 O   0  0  0  0  0  0  0  0  0  0  0  0
   14.4538    0.7451    0.0000 O   0  0  0  0  0  0  0  0  0  0  0  0
   22.4638   -0.9403    0.0000 O   0  0  0  0  0  0  0  0  0  0  0  0
   22.0014    3.3076    0.0000 O   0  0  0  0  0  0  0  0  0  0  0  0
   25.4933    3.6685    0.0000 O   0  0  0  0  0  0  0  0  0  0  0  0
   24.7910    1.8135    0.0000 O   0  0  0  0  0  0  0  0  0  0  0  0
   17.8996    1.1012    0.0000 O   0  0  0  0  0  0  0  0  0  0  0  0
   31.2837   -2.0394    0.0000 O   0  0  0  0  0  0  0  0  0  0  0  0
    4.6783   -3.3978    0.0000 N   0  0  0  0  0  0  0  0  0  0  0  0
    4.6783   -5.0073    0.0000 N   0  0  0  0  0  0  0  0  0  0  0  0
    2.8660   -3.2025    0.0000 N   0  0  0  0  0  0  0  0  0  0  0  0
    2.0000   -4.7025    0.0000 N   0  0  0  0  0  0  0  0  0  0  0  0
    2.8660   -6.2025    0.0000 N   0  0  0  0  0  0  0  0  0  0  0  0
   15.4695   -0.6579    0.0000 N   0  0  0  0  0  0  0  0  0  0  0  0
   23.7754    3.2165    0.0000 N   0  0  0  0  0  0  0  0  0  0  0  0
   18.9152   -0.3018    0.0000 N   0  0  0  0  0  0  0  0  0  0  0  0
    4.9917   -0.8293    0.0000 C   0  0  3  0  0  0  0  0  0  0  0  0
    4.4026   -1.6373    0.0000 C   0  0  3  0  0  0  0  0  0  0  0  0
    5.9422   -1.1399    0.0000 C   0  0  3  0  0  0  0  0  0  0  0  0
    4.9889   -2.4473    0.0000 C   0  0  3  0  0  0  0  0  0  0  0  0
    6.7523   -0.5535    0.0000 C   0  0  0  0  0  0  0  0  0  0  0  0
    3.7320   -3.7025    0.0000 C   0  0  0  0  0  0  0  0  0  0  0  0
    5.2619   -4.2025    0.0000 C   0  0  0  0  0  0  0  0  0  0  0  0
    3.7320   -4.7025    0.0000 C   0  0  0  0  0  0  0  0  0  0  0  0
    2.8660   -5.2025    0.0000 C   0  0  0  0  0  0  0  0  0  0  0  0
   12.8337   -0.4276    0.0000 C   0  0  0  0  0  0  0  0  0  0  0  0
    2.0000   -3.7025    0.0000 C   0  0  0  0  0  0  0  0  0  0  0  0
   11.9209   -0.0193    0.0000 C   0  0  0  0  0  0  0  0  0  0  0  0
   13.7466   -0.8360    0.0000 C   0  0  3  0  0  0  0  0  0  0  0  0
   13.2421    0.4852    0.0000 C   0  0  0  0  0  0  0  0  0  0  0  0
   12.4254   -1.3405    0.0000 C   0  0  0  0  0  0  0  0  0  0  0  0
   14.5566   -0.2496    0.0000 C   0  0  0  0  0  0  0  0  0  0  0  0
   23.1710    0.6408    0.0000 C   0  0  3  0  0  0  0  0  0  0  0  0
   23.0682    1.6355    0.0000 C   0  0  0  0  0  0  0  0  0  0  0  0
   23.8782    2.2218    0.0000 C   0  0  0  0  0  0  0  0  0  0  0  0
   16.2795   -0.0715    0.0000 C   0  0  0  0  0  0  0  0  0  0  0  0
   24.0838    0.2324    0.0000 C   0  0  0  0  0  0  0  0  0  0  0  0
   17.1923   -0.4798    0.0000 C   0  0  0  0  0  0  0  0  0  0  0  0
   22.3610    0.0544    0.0000 C   0  0  0  0  0  0  0  0  0  0  0  0
   22.9149    3.7143    0.0000 C   0  0  0  0  0  0  0  0  0  0  0  0
   24.5159    3.8798    0.0000 C   0  0  0  0  0  0  0  0  0  0  0  0
   23.1208    4.6869    0.0000 C   0  0  0  0  0  0  0  0  0  0  0  0
   24.1155    4.7897    0.0000 C   0  0  0  0  0  0  0  0  0  0  0  0
   24.8939    0.8188    0.0000 C   0  0  0  0  0  0  0  0  0  0  0  0
   18.0024    0.1066    0.0000 C   0  0  0  0  0  0  0  0  0  0  0  0
   20.6381   -0.1237    0.0000 C   0  0  0  0  0  0  0  0  0  0  0  0
   19.7252    0.2846    0.0000 C   0  0  0  0  0  0  0  0  0  0  0  0
   25.8067    0.4105    0.0000 C   0  0  0  0  0  0  0  0  0  0  0  0
   22.5344    5.4969    0.0000 C   0  0  0  0  0  0  0  0  0  0  0  0
   24.5238    5.7025    0.0000 C   0  0  0  0  0  0  0  0  0  0  0  0
   22.9427    6.4097    0.0000 C   0  0  0  0  0  0  0  0  0  0  0  0
   23.9374    6.5125    0.0000 C   0  0  0  0  0  0  0  0  0  0  0  0
   26.6167    0.9969    0.0000 C   0  0  0  0  0  0  0  0  0  0  0  0
   25.9095   -0.5842    0.0000 C   0  0  0  0  0  0  0  0  0  0  0  0
   27.6324   -0.4061    0.0000 C   0  0  0  0  0  0  0  0  0  0  0  0
   27.5296    0.5886    0.0000 C   0  0  0  0  0  0  0  0  0  0  0  0
   26.8223   -0.9925    0.0000 C   0  0  0  0  0  0  0  0  0  0  0  0
   28.5452   -0.8144    0.0000 C   0  0  0  0  0  0  0  0  0  0  0  0
   28.6480   -1.8092    0.0000 C   0  0  0  0  0  0  0  0  0  0  0  0
   29.3553   -0.2281    0.0000 C   0  0  0  0  0  0  0  0  0  0  0  0
   29.5609   -2.2175    0.0000 C   0  0  0  0  0  0  0  0  0  0  0  0
   30.2681   -0.6364    0.0000 C   0  0  0  0  0  0  0  0  0  0  0  0
   30.3709   -1.6311    0.0000 C   0  0  0  0  0  0  0  0  0  0  0  0
   32.0938   -1.4530    0.0000 C   0  0  0  0  0  0  0  0  0  0  0  0
   33.0066   -1.8613    0.0000 C   0  0  0  0  0  0  0  0  0  0  0  0
    5.4309   -0.3916    0.0000 H   0  0  0  0  0  0  0  0  0  0  0  0
    4.1220   -1.0844    0.0000 H   0  0  0  0  0  0  0  0  0  0  0  0
    6.4942   -1.4224    0.0000 H   0  0  0  0  0  0  0  0  0  0  0  0
    5.4266   -2.8864    0.0000 H   0  0  0  0  0  0  0  0  0  0  0  0
    7.0999   -0.0401    0.0000 H   0  0  0  0  0  0  0  0  0  0  0  0
    6.3070   -0.1221    0.0000 H   0  0  0  0  0  0  0  0  0  0  0  0
    3.0935   -1.0980    0.0000 H   0  0  0  0  0  0  0  0  0  0  0  0
    5.8819   -4.2025    0.0000 H   0  0  0  0  0  0  0  0  0  0  0  0
    5.8346    2.1963    0.0000 H   0  0  0  0  0  0  0  0  0  0  0  0
    4.0228    1.3442    0.0000 H   0  0  0  0  0  0  0  0  0  0  0  0
    1.4631   -3.3925    0.0000 H   0  0  0  0  0  0  0  0  0  0  0  0
   12.2685    0.4941    0.0000 H   0  0  0  0  0  0  0  0  0  0  0  0
   11.4757    0.4121    0.0000 H   0  0  0  0  0  0  0  0  0  0  0  0
   13.2444   -1.1995    0.0000 H   0  0  0  0  0  0  0  0  0  0  0  0
   13.8080    0.2320    0.0000 H   0  0  0  0  0  0  0  0  0  0  0  0
   13.4952    1.0512    0.0000 H   0  0  0  0  0  0  0  0  0  0  0  0
   12.6761    0.7383    0.0000 H   0  0  0  0  0  0  0  0  0  0  0  0
   11.8595   -1.0873    0.0000 H   0  0  0  0  0  0  0  0  0  0  0  0
   12.1723   -1.9064    0.0000 H   0  0  0  0  0  0  0  0  0  0  0  0
   12.9914   -1.5936    0.0000 H   0  0  0  0  0  0  0  0  0  0  0  0
    2.3291   -6.5125    0.0000 H   0  0  0  0  0  0  0  0  0  0  0  0
    3.4030   -6.5125    0.0000 H   0  0  0  0  0  0  0  0  0  0  0  0
    8.8084   -1.7515    0.0000 H   0  0  0  0  0  0  0  0  0  0  0  0
   14.4154   -2.0838    0.0000 H   0  0  0  0  0  0  0  0  0  0  0  0
   15.5332   -1.2746    0.0000 H   0  0  0  0  0  0  0  0  0  0  0  0
   22.6050    0.8939    0.0000 H   0  0  0  0  0  0  0  0  0  0  0  0
   22.7974    2.1932    0.0000 H   0  0  0  0  0  0  0  0  0  0  0  0
   22.4719    1.4656    0.0000 H   0  0  0  0  0  0  0  0  0  0  0  0
   10.2428    1.2177    0.0000 H   0  0  0  0  0  0  0  0  0  0  0  0
   24.1490    1.6641    0.0000 H   0  0  0  0  0  0  0  0  0  0  0  0
   24.4745    2.3917    0.0000 H   0  0  0  0  0  0  0  0  0  0  0  0
   16.6271    0.4419    0.0000 H   0  0  0  0  0  0  0  0  0  0  0  0
   15.8342    0.3599    0.0000 H   0  0  0  0  0  0  0  0  0  0  0  0
   23.7362   -0.2810    0.0000 H   0  0  0  0  0  0  0  0  0  0  0  0
   24.5291   -0.1990    0.0000 H   0  0  0  0  0  0  0  0  0  0  0  0
   16.8447   -0.9932    0.0000 H   0  0  0  0  0  0  0  0  0  0  0  0
   17.6376   -0.9113    0.0000 H   0  0  0  0  0  0  0  0  0  0  0  0
   20.2905   -0.6371    0.0000 H   0  0  0  0  0  0  0  0  0  0  0  0
   21.0833   -0.5552    0.0000 H   0  0  0  0  0  0  0  0  0  0  0  0
   20.0728    0.7980    0.0000 H   0  0  0  0  0  0  0  0  0  0  0  0
   19.2800    0.7161    0.0000 H   0  0  0  0  0  0  0  0  0  0  0  0
   21.9177    5.4332    0.0000 H   0  0  0  0  0  0  0  0  0  0  0  0
   25.1405    5.7662    0.0000 H   0  0  0  0  0  0  0  0  0  0  0  0
   18.9789   -0.9185    0.0000 H   0  0  0  0  0  0  0  0  0  0  0  0
   22.5791    6.9120    0.0000 H   0  0  0  0  0  0  0  0  0  0  0  0
   24.1906    7.0785    0.0000 H   0  0  0  0  0  0  0  0  0  0  0  0
   26.5530    1.6136    0.0000 H   0  0  0  0  0  0  0  0  0  0  0  0
   25.4073   -0.9478    0.0000 H   0  0  0  0  0  0  0  0  0  0  0  0
   28.0318    0.9521    0.0000 H   0  0  0  0  0  0  0  0  0  0  0  0
   26.8861   -1.6092    0.0000 H   0  0  0  0  0  0  0  0  0  0  0  0
   28.1458   -2.1727    0.0000 H   0  0  0  0  0  0  0  0  0  0  0  0
   29.2915    0.3887    0.0000 H   0  0  0  0  0  0  0  0  0  0  0  0
   29.6246   -2.8342    0.0000 H   0  0  0  0  0  0  0  0  0  0  0  0
   30.7703   -0.2728    0.0000 H   0  0  0  0  0  0  0  0  0  0  0  0
   32.4414   -0.9396    0.0000 H   0  0  0  0  0  0  0  0  0  0  0  0
   31.6485   -1.0216    0.0000 H   0  0  0  0  0  0  0  0  0  0  0  0
   32.7535   -2.4273    0.0000 H   0  0  0  0  0  0  0  0  0  0  0  0
   33.5726   -2.1145    0.0000 H   0  0  0  0  0  0  0  0  0  0  0  0
   33.2598   -1.2954    0.0000 H   0  0  0  0  0  0  0  0  0  0  0  0
  1 56  1  0  0  0  0
  1 63  1  0  0  0  0
  2  6  1  0  0  0  0
  2  9  1  0  0  0  0
  2 10  1  0  0  0  0
  2 11  2  0  0  0  0
  3  8  1  0  0  0  0
  3 12  1  0  0  0  0
  3 13  1  0  0  0  0
  3 15  2  0  0  0  0
  4 12  1  0  0  0  0
  4 14  1  0  0  0  0
  4 17  1  0  0  0  0
  4 18  2  0  0  0  0
  5 36  1  0  0  0  0
  5 37  1  0  0  0  0
  6 34  1  0  0  0  0
  7 35  1  0  0  0  0
  7 89  1  0  0  0  0
  8 38  1  0  0  0  0
  9 91  1  0  0  0  0
 10 92  1  0  0  0  0
 13105  1  0  0  0  0
 14 45  1  0  0  0  0
 16 46  1  0  0  0  0
 16106  1  0  0  0  0
 17111  1  0  0  0  0
 19 49  2  0  0  0  0
 20 56  2  0  0  0  0
 21 57  2  0  0  0  0
 22 58  2  0  0  0  0
 23 61  2  0  0  0  0
 24 62  2  0  0  0  0
 25 80  1  0  0  0  0
 25 81  1  0  0  0  0
 26 37  1  0  0  0  0
 26 39  1  0  0  0  0
 26 40  1  0  0  0  0
 27 40  2  0  0  0  0
 27 41  1  0  0  0  0
 28 39  2  0  0  0  0
 28 44  1  0  0  0  0
 29 42  1  0  0  0  0
 29 44  2  0  0  0  0
 30 42  1  0  0  0  0
 30103  1  0  0  0  0
 30104  1  0  0  0  0
 31 49  1  0  0  0  0
 31 53  1  0  0  0  0
 31107  1  0  0  0  0
 32 52  1  0  0  0  0
 32 57  1  0  0  0  0
 32 58  1  0  0  0  0
 33 62  1  0  0  0  0
 33 64  1  0  0  0  0
 33126  1  0  0  0  0
 34 35  1  0  0  0  0
 34 36  1  0  0  0  0
 34 83  1  0  0  0  0
 35 37  1  0  0  0  0
 35 84  1  0  0  0  0
 36 38  1  0  0  0  0
 36 85  1  0  0  0  0
 37 86  1  0  0  0  0
 38 87  1  0  0  0  0
 38 88  1  0  0  0  0
 39 41  1  0  0  0  0
 40 90  1  0  0  0  0
 41 42  2  0  0  0  0
 43 45  1  0  0  0  0
 43 46  1  0  0  0  0
 43 47  1  0  0  0  0
 43 48  1  0  0  0  0
 44 93  1  0  0  0  0
 45 94  1  0  0  0  0
 45 95  1  0  0  0  0
 46 49  1  0  0  0  0
 46 96  1  0  0  0  0
 47 97  1  0  0  0  0
 47 98  1  0  0  0  0
 47 99  1  0  0  0  0
 48100  1  0  0  0  0
 48101  1  0  0  0  0
 48102  1  0  0  0  0
 50 51  1  0  0  0  0
 50 54  1  0  0  0  0
 50 56  1  0  0  0  0
 50108  1  0  0  0  0
 51 52  1  0  0  0  0
 51109  1  0  0  0  0
 51110  1  0  0  0  0
 52112  1  0  0  0  0
 52113  1  0  0  0  0
 53 55  1  0  0  0  0
 53114  1  0  0  0  0
 53115  1  0  0  0  0
 54 61  1  0  0  0  0
 54116  1  0  0  0  0
 54117  1  0  0  0  0
 55 62  1  0  0  0  0
 55118  1  0  0  0  0
 55119  1  0  0  0  0
 57 59  1  0  0  0  0
 58 60  1  0  0  0  0
 59 60  1  0  0  0  0
 59 66  2  0  0  0  0
 60 67  2  0  0  0  0
 61 65  1  0  0  0  0
 63 64  1  0  0  0  0
 63120  1  0  0  0  0
 63121  1  0  0  0  0
 64122  1  0  0  0  0
 64123  1  0  0  0  0
 65 70  2  0  0  0  0
 65 71  1  0  0  0  0
 66 68  1  0  0  0  0
 66124  1  0  0  0  0
 67 69  1  0  0  0  0
 67125  1  0  0  0  0
 68 69  2  0  0  0  0
 68127  1  0  0  0  0
 69128  1  0  0  0  0
 70 73  1  0  0  0  0
 70129  1  0  0  0  0
 71 74  2  0  0  0  0
 71130  1  0  0  0  0
 72 73  2  0  0  0  0
 72 74  1  0  0  0  0
 72 75  1  0  0  0  0
 73131  1  0  0  0  0
 74132  1  0  0  0  0
 75 76  2  0  0  0  0
 75 77  1  0  0  0  0
 76 78  1  0  0  0  0
 76133  1  0  0  0  0
 77 79  2  0  0  0  0
 77134  1  0  0  0  0
 78 80  2  0  0  0  0
 78135  1  0  0  0  0
 79 80  1  0  0  0  0
 79136  1  0  0  0  0
 81 82  1  0  0  0  0
 81137  1  0  0  0  0
 81138  1  0  0  0  0
 82139  1  0  0  0  0
 82140  1  0  0  0  0
 82141  1  0  0  0  0
M  END
> <PUBCHEM_COMPOUND_CID>
155489738

> <PUBCHEM_COMPOUND_CANONICALIZED>
1

> <PUBCHEM_CACTVS_COMPLEXITY>
2360

> <PUBCHEM_CACTVS_HBOND_ACCEPTOR>
26

> <PUBCHEM_CACTVS_HBOND_DONOR>
9

> <PUBCHEM_CACTVS_ROTATABLE_BOND>
30

> <PUBCHEM_CACTVS_SUBSKEYS>
AAADcfB//gNAAAAAAAAAAAAAAAAAAWLEgAA8YMEAAAAAAFgB/AAAHgQQCCAADxzl3wa39r/MFxioQ6dzdIKCiC01MLAJ2KFuXNiPfjrk/VuefSjv1jP7qaf/+fKP4AAAAAAQAADAAAAAACAAAAAAAAAAAA==

> <PUBCHEM_IUPAC_OPENEYE_NAME>
S-[2-[3-[[4-[[[5-(6-aminopurin-9-yl)-4-hydroxy-3-phosphonooxy-tetrahydrofuran-2-yl]methoxy-hydroxy-phosphoryl]oxy-hydroxy-phosphoryl]oxy-2-hydroxy-3,3-dimethyl-butanoyl]amino]propanoylamino]ethyl] 2-[2-(1,3-dioxoisoindolin-2-yl)ethyl]-4-[4-(4-ethoxyphenyl)phenyl]-4-oxo-butanethioate

> <PUBCHEM_IUPAC_CAS_NAME>
2-[2-(1,3-dioxo-2-isoindolyl)ethyl]-4-[4-(4-ethoxyphenyl)phenyl]-4-oxobutanethioic acid S-[2-[[3-[[4-[[[5-(6-aminopurin-9-yl)-4-hydroxy-3-phosphonooxy-2-oxolanyl]methoxy-hydroxyphosphoryl]oxy-hydroxyphosphoryl]oxy-2-hydroxy-3,3-dimethyl-1-oxobutyl]amino]-1-oxopropyl]amino]ethyl] ester

> <PUBCHEM_IUPAC_NAME_MARKUP>
<I>S</I>-[2-[3-[[4-[[[5-(6-aminopurin-9-yl)-4-hydroxy-3-phosphonooxyoxolan-2-yl]methoxy-hydroxyphosphoryl]oxy-hydroxyphosphoryl]oxy-2-hydroxy-3,3-dimethylbutanoyl]amino]propanoylamino]ethyl] 2-[2-(1,3-dioxoisoindol-2-yl)ethyl]-4-[4-(4-ethoxyphenyl)phenyl]-4-oxobutanethioate

> <PUBCHEM_IUPAC_NAME>
S-[2-[3-[[4-[[[5-(6-aminopurin-9-yl)-4-hydroxy-3-phosphonooxyoxolan-2-yl]methoxy-hydroxyphosphoryl]oxy-hydroxyphosphoryl]oxy-2-hydroxy-3,3-dimethylbutanoyl]amino]propanoylamino]ethyl] 2-[2-(1,3-dioxoisoindol-2-yl)ethyl]-4-[4-(4-ethoxyphenyl)phenyl]-4-oxobutanethioate

> <PUBCHEM_IUPAC_SYSTEMATIC_NAME>
S-[2-[3-[[4-[[[5-(6-aminopurin-9-yl)-4-oxidanyl-3-phosphonooxy-oxolan-2-yl]methoxy-oxidanyl-phosphoryl]oxy-oxidanyl-phosphoryl]oxy-3,3-dimethyl-2-oxidanyl-butanoyl]amino]propanoylamino]ethyl] 2-[2-[1,3-bis(oxidanylidene)isoindol-2-yl]ethyl]-4-[4-(4-ethoxyphenyl)phenyl]-4-oxidanylidene-butanethioate

> <PUBCHEM_IUPAC_TRADITIONAL_NAME>
4-keto-2-(2-phthalimidoethyl)-4-(4-p-phenetylphenyl)butanethioic acid S-[2-[3-[[4-[[(5-adenin-9-yl-4-hydroxy-3-phosphonooxy-tetrahydrofuran-2-yl)methoxy-hydroxy-phosphoryl]oxy-hydroxy-phosphoryl]oxy-2-hydroxy-3,3-dimethyl-butanoyl]amino]propanoylamino]ethyl] ester

> <PUBCHEM_IUPAC_INCHI>
InChI=1S/C49H59N8O21P3S/c1-4-73-32-15-13-29(14-16-32)28-9-11-30(12-10-28)35(58)23-31(18-21-56-45(63)33-7-5-6-8-34(33)46(56)64)48(65)82-22-20-51-37(59)17-19-52-44(62)41(61)49(2,3)25-75-81(71,72)78-80(69,70)74-24-36-40(77-79(66,67)68)39(60)47(76-36)57-27-55-38-42(50)53-26-54-43(38)57/h5-16,26-27,31,36,39-41,47,60-61H,4,17-25H2,1-3H3,(H,51,59)(H,52,62)(H,69,70)(H,71,72)(H2,50,53,54)(H2,66,67,68)

> <PUBCHEM_IUPAC_INCHIKEY>
ZSEGLMODEDYPSV-UHFFFAOYSA-N

> <PUBCHEM_XLOGP3_AA>
-1.4

> <PUBCHEM_EXACT_MASS>
1220.27283309

> <PUBCHEM_MOLECULAR_FORMULA>
C49H59N8O21P3S

> <PUBCHEM_MOLECULAR_WEIGHT>
1221.0

> <PUBCHEM_OPENEYE_CAN_SMILES>
CCOC1=CC=C(C=C1)C2=CC=C(C=C2)C(=O)CC(CCN3C(=O)C4=CC=CC=C4C3=O)C(=O)SCCNC(=O)CCNC(=O)C(C(C)(C)COP(=O)(O)OP(=O)(O)OCC5C(C(C(O5)N6C=NC7=C(N=CN=C76)N)O)OP(=O)(O)O)O

> <PUBCHEM_OPENEYE_ISO_SMILES>
CCOC1=CC=C(C=C1)C2=CC=C(C=C2)C(=O)CC(CCN3C(=O)C4=CC=CC=C4C3=O)C(=O)SCCNC(=O)CCNC(=O)C(C(C)(C)COP(=O)(O)OP(=O)(O)OCC5C(C(C(O5)N6C=NC7=C(N=CN=C76)N)O)OP(=O)(O)O)O

> <PUBCHEM_CACTVS_TPSA>
453

> <PUBCHEM_MONOISOTOPIC_WEIGHT>
1220.27283309

> <PUBCHEM_TOTAL_CHARGE>
0

> <PUBCHEM_HEAVY_ATOM_COUNT>
82

> <PUBCHEM_ATOM_DEF_STEREO_COUNT>
0

> <PUBCHEM_ATOM_UDEF_STEREO_COUNT>
6

> <PUBCHEM_BOND_DEF_STEREO_COUNT>
0

> <PUBCHEM_BOND_UDEF_STEREO_COUNT>
0

> <PUBCHEM_ISOTOPIC_ATOM_COUNT>
0

> <PUBCHEM_COMPONENT_COUNT>
1

> <PUBCHEM_CACTVS_TAUTO_COUNT>
-1

> <PUBCHEM_COORDINATE_TYPE>
1
5
255

> <PUBCHEM_BONDANNOTATIONS>
46  16  3
37  26  3
26  39  8
26  40  8
27  40  8
27  41  8
28  39  8
28  44  8
29  42  8
29  44  8
36  38  3
39  41  8
41  42  8
50  51  3
59  60  8
59  66  8
34  6  3
60  67  8
65  70  8
65  71  8
66  68  8
67  69  8
68  69  8
35  7  3
70  73  8
71  74  8
72  73  8
72  74  8
75  76  8
75  77  8
76  78  8
77  79  8
78  80  8
79  80  8

$$$$
155488726
  -OEChem-03012215082D

103106  0     1  0  0  0  0  0999 V2000
   21.4481    1.4222    0.0000 S   0  0  0  0  0  0  0  0  0  0  0  0
   24.7107    2.0976    0.0000 S   0  0  0  0  0  0  0  0  0  0  0  0
    5.3548    1.8239    0.0000 P   0  0  0  0  0  0  0  0  0  0  0  0
    8.4752    0.5841    0.0000 P   0  0  3  0  0  0  0  0  0  0  0  0
   10.1980    0.7621    0.0000 P   0  0  3  0  0  0  0  0  0  0  0  0
    5.9405   -1.1804    0.0000 O   0  0  0  0  0  0  0  0  0  0  0  0
    4.6844    1.0819    0.0000 O   0  0  0  0  0  0  0  0  0  0  0  0
    3.4026   -0.6760    0.0000 O   0  0  0  0  0  0  0  0  0  0  0  0
    7.6651   -0.0023    0.0000 O   0  0  0  0  0  0  0  0  0  0  0  0
    6.0252    2.5658    0.0000 O   0  0  0  0  0  0  0  0  0  0  0  0
    4.6128    2.4943    0.0000 O   0  0  0  0  0  0  0  0  0  0  0  0
    9.2852    1.1704    0.0000 O   0  0  0  0  0  0  0  0  0  0  0  0
    6.0968    1.1534    0.0000 O   0  0  0  0  0  0  0  0  0  0  0  0
   11.1109    0.3538    0.0000 O   0  0  0  0  0  0  0  0  0  0  0  0
    9.0615   -0.2260    0.0000 O   0  0  0  0  0  0  0  0  0  0  0  0
    7.8888    1.3941    0.0000 O   0  0  0  0  0  0  0  0  0  0  0  0
   13.8494   -0.8711    0.0000 O   0  0  0  0  0  0  0  0  0  0  0  0
   10.6063    1.6750    0.0000 O   0  0  0  0  0  0  0  0  0  0  0  0
    9.7897   -0.1507    0.0000 O   0  0  0  0  0  0  0  0  0  0  0  0
   14.4538    1.7047    0.0000 O   0  0  0  0  0  0  0  0  0  0  0  0
   17.8996    2.0608    0.0000 O   0  0  0  0  0  0  0  0  0  0  0  0
   22.4638    0.0192    0.0000 O   0  0  0  0  0  0  0  0  0  0  0  0
    4.6783   -2.4383    0.0000 N   0  0  0  0  0  0  0  0  0  0  0  0
    4.6783   -4.0477    0.0000 N   0  0  0  0  0  0  0  0  0  0  0  0
    2.8660   -2.2430    0.0000 N   0  0  0  0  0  0  0  0  0  0  0  0
    2.0000   -3.7430    0.0000 N   0  0  0  0  0  0  0  0  0  0  0  0
    2.8660   -5.2430    0.0000 N   0  0  0  0  0  0  0  0  0  0  0  0
   15.4695    0.3016    0.0000 N   0  0  0  0  0  0  0  0  0  0  0  0
   18.9152    0.6578    0.0000 N   0  0  0  0  0  0  0  0  0  0  0  0
   23.1727    2.6003    0.0000 N   0  0  0  0  0  0  0  0  0  0  0  0
   25.4135    4.0644    0.0000 N   0  0  0  0  0  0  0  0  0  0  0  0
    4.9917    0.1303    0.0000 C   0  0  3  0  0  0  0  0  0  0  0  0
    4.4026   -0.6777    0.0000 C   0  0  3  0  0  0  0  0  0  0  0  0
    5.9422   -0.1804    0.0000 C   0  0  3  0  0  0  0  0  0  0  0  0
    4.9889   -1.4877    0.0000 C   0  0  3  0  0  0  0  0  0  0  0  0
    6.7523    0.4060    0.0000 C   0  0  0  0  0  0  0  0  0  0  0  0
    3.7320   -2.7430    0.0000 C   0  0  0  0  0  0  0  0  0  0  0  0
    5.2619   -3.2430    0.0000 C   0  0  0  0  0  0  0  0  0  0  0  0
    3.7320   -3.7430    0.0000 C   0  0  0  0  0  0  0  0  0  0  0  0
   12.8337    0.5319    0.0000 C   0  0  0  0  0  0  0  0  0  0  0  0
   13.7466    0.1236    0.0000 C   0  0  3  0  0  0  0  0  0  0  0  0
    2.8660   -4.2430    0.0000 C   0  0  0  0  0  0  0  0  0  0  0  0
   11.9209    0.9402    0.0000 C   0  0  0  0  0  0  0  0  0  0  0  0
   13.2421    1.4447    0.0000 C   0  0  0  0  0  0  0  0  0  0  0  0
   12.4254   -0.3810    0.0000 C   0  0  0  0  0  0  0  0  0  0  0  0
    2.0000   -2.7430    0.0000 C   0  0  0  0  0  0  0  0  0  0  0  0
   14.5566    0.7100    0.0000 C   0  0  0  0  0  0  0  0  0  0  0  0
   16.2795    0.8880    0.0000 C   0  0  0  0  0  0  0  0  0  0  0  0
   17.1923    0.4797    0.0000 C   0  0  0  0  0  0  0  0  0  0  0  0
   18.0024    1.0661    0.0000 C   0  0  0  0  0  0  0  0  0  0  0  0
   19.7252    1.2442    0.0000 C   0  0  0  0  0  0  0  0  0  0  0  0
   20.6381    0.8358    0.0000 C   0  0  0  0  0  0  0  0  0  0  0  0
   23.1710    1.6003    0.0000 C   0  0  3  0  0  0  0  0  0  0  0  0
   24.1215    1.2896    0.0000 C   0  0  0  0  0  0  0  0  0  0  0  0
   22.3610    1.0139    0.0000 C   0  0  0  0  0  0  0  0  0  0  0  0
   24.1243    2.9077    0.0000 C   0  0  0  0  0  0  0  0  0  0  0  0
   24.4350    3.8582    0.0000 C   0  0  0  0  0  0  0  0  0  0  0  0
   23.7671    4.6025    0.0000 C   0  0  0  0  0  0  0  0  0  0  0  0
   24.0778    5.5530    0.0000 C   0  0  0  0  0  0  0  0  0  0  0  0
    5.4309    0.5679    0.0000 H   0  0  0  0  0  0  0  0  0  0  0  0
    4.1220   -0.1248    0.0000 H   0  0  0  0  0  0  0  0  0  0  0  0
    6.4942   -0.4628    0.0000 H   0  0  0  0  0  0  0  0  0  0  0  0
    5.4266   -1.9269    0.0000 H   0  0  0  0  0  0  0  0  0  0  0  0
    7.0999    0.9194    0.0000 H   0  0  0  0  0  0  0  0  0  0  0  0
    6.3070    0.8375    0.0000 H   0  0  0  0  0  0  0  0  0  0  0  0
    3.0935   -0.1385    0.0000 H   0  0  0  0  0  0  0  0  0  0  0  0
    5.8819   -3.2430    0.0000 H   0  0  0  0  0  0  0  0  0  0  0  0
   13.2444   -0.2400    0.0000 H   0  0  0  0  0  0  0  0  0  0  0  0
   12.2685    1.4536    0.0000 H   0  0  0  0  0  0  0  0  0  0  0  0
   11.4757    1.3717    0.0000 H   0  0  0  0  0  0  0  0  0  0  0  0
   13.8080    1.1916    0.0000 H   0  0  0  0  0  0  0  0  0  0  0  0
   13.4952    2.0107    0.0000 H   0  0  0  0  0  0  0  0  0  0  0  0
   12.6761    1.6979    0.0000 H   0  0  0  0  0  0  0  0  0  0  0  0
   11.8595   -0.1278    0.0000 H   0  0  0  0  0  0  0  0  0  0  0  0
   12.1723   -0.9469    0.0000 H   0  0  0  0  0  0  0  0  0  0  0  0
   12.9914   -0.6341    0.0000 H   0  0  0  0  0  0  0  0  0  0  0  0
    5.8346    3.1558    0.0000 H   0  0  0  0  0  0  0  0  0  0  0  0
    4.0228    2.3037    0.0000 H   0  0  0  0  0  0  0  0  0  0  0  0
    1.4631   -2.4330    0.0000 H   0  0  0  0  0  0  0  0  0  0  0  0
    8.8084   -0.7919    0.0000 H   0  0  0  0  0  0  0  0  0  0  0  0
    2.3291   -5.5530    0.0000 H   0  0  0  0  0  0  0  0  0  0  0  0
    3.4030   -5.5530    0.0000 H   0  0  0  0  0  0  0  0  0  0  0  0
   14.4154   -1.1243    0.0000 H   0  0  0  0  0  0  0  0  0  0  0  0
   15.5332   -0.3151    0.0000 H   0  0  0  0  0  0  0  0  0  0  0  0
   16.6271    1.4014    0.0000 H   0  0  0  0  0  0  0  0  0  0  0  0
   15.8342    1.3195    0.0000 H   0  0  0  0  0  0  0  0  0  0  0  0
   10.2428    2.1772    0.0000 H   0  0  0  0  0  0  0  0  0  0  0  0
   16.8447   -0.0337    0.0000 H   0  0  0  0  0  0  0  0  0  0  0  0
   17.6376    0.0482    0.0000 H   0  0  0  0  0  0  0  0  0  0  0  0
   18.9789    0.0411    0.0000 H   0  0  0  0  0  0  0  0  0  0  0  0
   20.0728    1.7576    0.0000 H   0  0  0  0  0  0  0  0  0  0  0  0
   19.2800    1.6756    0.0000 H   0  0  0  0  0  0  0  0  0  0  0  0
   20.2905    0.3224    0.0000 H   0  0  0  0  0  0  0  0  0  0  0  0
   21.0833    0.4044    0.0000 H   0  0  0  0  0  0  0  0  0  0  0  0
   22.6190    1.8827    0.0000 H   0  0  0  0  0  0  0  0  0  0  0  0
   23.8683    0.7237    0.0000 H   0  0  0  0  0  0  0  0  0  0  0  0
   24.6579    0.9787    0.0000 H   0  0  0  0  0  0  0  0  0  0  0  0
   23.1604    4.4746    0.0000 H   0  0  0  0  0  0  0  0  0  0  0  0
   25.6061    4.6537    0.0000 H   0  0  0  0  0  0  0  0  0  0  0  0
   25.8275    3.6029    0.0000 H   0  0  0  0  0  0  0  0  0  0  0  0
   24.6671    5.3604    0.0000 H   0  0  0  0  0  0  0  0  0  0  0  0
   24.2704    6.1423    0.0000 H   0  0  0  0  0  0  0  0  0  0  0  0
   23.4885    5.7456    0.0000 H   0  0  0  0  0  0  0  0  0  0  0  0
  1 52  1  0  0  0  0
  1 55  1  0  0  0  0
  2 54  1  0  0  0  0
  2 56  1  0  0  0  0
  3  7  1  0  0  0  0
  3 10  1  0  0  0  0
  3 11  1  0  0  0  0
  3 13  2  0  0  0  0
  4  9  1  0  0  0  0
  4 12  1  0  0  0  0
  4 15  1  0  0  0  0
  4 16  2  0  0  0  0
  5 12  1  0  0  0  0
  5 14  1  0  0  0  0
  5 18  1  0  0  0  0
  5 19  2  0  0  0  0
  6 34  1  0  0  0  0
  6 35  1  0  0  0  0
  7 32  1  0  0  0  0
  8 33  1  0  0  0  0
  8 66  1  0  0  0  0
  9 36  1  0  0  0  0
 10 77  1  0  0  0  0
 11 78  1  0  0  0  0
 14 43  1  0  0  0  0
 15 80  1  0  0  0  0
 17 41  1  0  0  0  0
 17 83  1  0  0  0  0
 18 87  1  0  0  0  0
 20 47  2  0  0  0  0
 21 50  2  0  0  0  0
 22 55  2  0  0  0  0
 23 35  1  0  0  0  0
 23 37  1  0  0  0  0
 23 38  1  0  0  0  0
 24 38  2  0  0  0  0
 24 39  1  0  0  0  0
 25 37  2  0  0  0  0
 25 46  1  0  0  0  0
 26 42  1  0  0  0  0
 26 46  2  0  0  0  0
 27 42  1  0  0  0  0
 27 81  1  0  0  0  0
 27 82  1  0  0  0  0
 28 47  1  0  0  0  0
 28 48  1  0  0  0  0
 28 84  1  0  0  0  0
 29 50  1  0  0  0  0
 29 51  1  0  0  0  0
 29 90  1  0  0  0  0
 30 53  1  0  0  0  0
 30 56  2  0  0  0  0
 31 57  1  0  0  0  0
 31 99  1  0  0  0  0
 31100  1  0  0  0  0
 32 33  1  0  0  0  0
 32 34  1  0  0  0  0
 32 60  1  0  0  0  0
 33 35  1  0  0  0  0
 33 61  1  0  0  0  0
 34 36  1  0  0  0  0
 34 62  1  0  0  0  0
 35 63  1  0  0  0  0
 36 64  1  0  0  0  0
 36 65  1  0  0  0  0
 37 39  1  0  0  0  0
 38 67  1  0  0  0  0
 39 42  2  0  0  0  0
 40 41  1  0  0  0  0
 40 43  1  0  0  0  0
 40 44  1  0  0  0  0
 40 45  1  0  0  0  0
 41 47  1  0  0  0  0
 41 68  1  0  0  0  0
 43 69  1  0  0  0  0
 43 70  1  0  0  0  0
 44 71  1  0  0  0  0
 44 72  1  0  0  0  0
 44 73  1  0  0  0  0
 45 74  1  0  0  0  0
 45 75  1  0  0  0  0
 45 76  1  0  0  0  0
 46 79  1  0  0  0  0
 48 49  1  0  0  0  0
 48 85  1  0  0  0  0
 48 86  1  0  0  0  0
 49 50  1  0  0  0  0
 49 88  1  0  0  0  0
 49 89  1  0  0  0  0
 51 52  1  0  0  0  0
 51 91  1  0  0  0  0
 51 92  1  0  0  0  0
 52 93  1  0  0  0  0
 52 94  1  0  0  0  0
 53 54  1  0  0  0  0
 53 55  1  0  0  0  0
 53 95  1  0  0  0  0
 54 96  1  0  0  0  0
 54 97  1  0  0  0  0
 56 57  1  0  0  0  0
 57 58  2  0  0  0  0
 58 59  1  0  0  0  0
 58 98  1  0  0  0  0
 59101  1  0  0  0  0
 59102  1  0  0  0  0
 59103  1  0  0  0  0
M  END
> <PUBCHEM_COMPOUND_CID>
155488726

> <PUBCHEM_COMPOUND_CANONICALIZED>
1

> <PUBCHEM_CACTVS_COMPLEXITY>
1730

> <PUBCHEM_CACTVS_HBOND_ACCEPTOR>
25

> <PUBCHEM_CACTVS_HBOND_DONOR>
10

> <PUBCHEM_CACTVS_ROTATABLE_BOND>
22

> <PUBCHEM_CACTVS_SUBSKEYS>
AAADcfB7/gNgAAAAAAAAAAAAAAAAAWJEAAAsAAAAAAAAAFgB+AAAHgQQCCAADjzl1waH8L/MFxioQSdzdIKAkC0RErABWKHoVBCDWBpgyEAeRAgPFgLzACDyMAIJAAAAAAAAAAAAAAAAAAAAAAAAAAAAAA==

> <PUBCHEM_IUPAC_OPENEYE_NAME>
S-[2-[3-[[4-[[[5-(6-aminopurin-9-yl)-4-hydroxy-3-phosphonooxy-tetrahydrofuran-2-yl]methoxy-hydroxy-phosphoryl]oxy-hydroxy-phosphoryl]oxy-2-hydroxy-3,3-dimethyl-butanoyl]amino]propanoylamino]ethyl] 2-[(Z)-1-aminoprop-1-enyl]-4,5-dihydrothiazole-4-carbothioate

> <PUBCHEM_IUPAC_CAS_NAME>
2-[(Z)-1-aminoprop-1-enyl]-4,5-dihydrothiazole-4-carbothioic acid S-[2-[[3-[[4-[[[5-(6-aminopurin-9-yl)-4-hydroxy-3-phosphonooxy-2-oxolanyl]methoxy-hydroxyphosphoryl]oxy-hydroxyphosphoryl]oxy-2-hydroxy-3,3-dimethyl-1-oxobutyl]amino]-1-oxopropyl]amino]ethyl] ester

> <PUBCHEM_IUPAC_NAME_MARKUP>
<I>S</I>-[2-[3-[[4-[[[5-(6-aminopurin-9-yl)-4-hydroxy-3-phosphonooxyoxolan-2-yl]methoxy-hydroxyphosphoryl]oxy-hydroxyphosphoryl]oxy-2-hydroxy-3,3-dimethylbutanoyl]amino]propanoylamino]ethyl] 2-[(<I>Z</I>)-1-aminoprop-1-enyl]-4,5-dihydro-1,3-thiazole-4-carbothioate

> <PUBCHEM_IUPAC_NAME>
S-[2-[3-[[4-[[[5-(6-aminopurin-9-yl)-4-hydroxy-3-phosphonooxyoxolan-2-yl]methoxy-hydroxyphosphoryl]oxy-hydroxyphosphoryl]oxy-2-hydroxy-3,3-dimethylbutanoyl]amino]propanoylamino]ethyl] 2-[(Z)-1-aminoprop-1-enyl]-4,5-dihydro-1,3-thiazole-4-carbothioate

> <PUBCHEM_IUPAC_SYSTEMATIC_NAME>
S-[2-[3-[[4-[[[5-(6-aminopurin-9-yl)-4-oxidanyl-3-phosphonooxy-oxolan-2-yl]methoxy-oxidanyl-phosphoryl]oxy-oxidanyl-phosphoryl]oxy-3,3-dimethyl-2-oxidanyl-butanoyl]amino]propanoylamino]ethyl] 2-[(Z)-1-azanylprop-1-enyl]-4,5-dihydro-1,3-thiazole-4-carbothioate

> <PUBCHEM_IUPAC_TRADITIONAL_NAME>
2-[(Z)-1-aminoprop-1-enyl]-2-thiazoline-4-carbothioic acid S-[2-[3-[[4-[[(5-adenin-9-yl-4-hydroxy-3-phosphonooxy-tetrahydrofuran-2-yl)methoxy-hydroxy-phosphoryl]oxy-hydroxy-phosphoryl]oxy-2-hydroxy-3,3-dimethyl-butanoyl]amino]propanoylamino]ethyl] ester

> <PUBCHEM_IUPAC_INCHI>
InChI=1S/C28H44N9O17P3S2/c1-4-14(29)25-36-15(10-59-25)27(42)58-8-7-31-17(38)5-6-32-24(41)21(40)28(2,3)11-51-57(48,49)54-56(46,47)50-9-16-20(53-55(43,44)45)19(39)26(52-16)37-13-35-18-22(30)33-12-34-23(18)37/h4,12-13,15-16,19-21,26,39-40H,5-11,29H2,1-3H3,(H,31,38)(H,32,41)(H,46,47)(H,48,49)(H2,30,33,34)(H2,43,44,45)/b14-4-

> <PUBCHEM_IUPAC_INCHIKEY>
AHEMQOARXMQDDK-CPSFFCFKSA-N

> <PUBCHEM_XLOGP3_AA>
-4.9

> <PUBCHEM_EXACT_MASS>
935.15094431

> <PUBCHEM_MOLECULAR_FORMULA>
C28H44N9O17P3S2

> <PUBCHEM_MOLECULAR_WEIGHT>
935.8

> <PUBCHEM_OPENEYE_CAN_SMILES>
CC=C(C1=NC(CS1)C(=O)SCCNC(=O)CCNC(=O)C(C(C)(C)COP(=O)(O)OP(=O)(O)OCC2C(C(C(O2)N3C=NC4=C(N=CN=C43)N)O)OP(=O)(O)O)O)N

> <PUBCHEM_OPENEYE_ISO_SMILES>
C/C=C(/C1=NC(CS1)C(=O)SCCNC(=O)CCNC(=O)C(C(C)(C)COP(=O)(O)OP(=O)(O)OCC2C(C(C(O2)N3C=NC4=C(N=CN=C43)N)O)OP(=O)(O)O)O)\N

> <PUBCHEM_CACTVS_TPSA>
453

> <PUBCHEM_MONOISOTOPIC_WEIGHT>
935.15094431

> <PUBCHEM_TOTAL_CHARGE>
0

> <PUBCHEM_HEAVY_ATOM_COUNT>
59

> <PUBCHEM_ATOM_DEF_STEREO_COUNT>
0

> <PUBCHEM_ATOM_UDEF_STEREO_COUNT>
6

> <PUBCHEM_BOND_DEF_STEREO_COUNT>
1

> <PUBCHEM_BOND_UDEF_STEREO_COUNT>
0

> <PUBCHEM_ISOTOPIC_ATOM_COUNT>
0

> <PUBCHEM_COMPONENT_COUNT>
1

> <PUBCHEM_CACTVS_TAUTO_COUNT>
-1

> <PUBCHEM_COORDINATE_TYPE>
1
5
255

> <PUBCHEM_BONDANNOTATIONS>
41  17  3
35  23  3
23  37  8
23  38  8
24  38  8
24  39  8
25  37  8
25  46  8
26  42  8
26  46  8
34  36  3
37  39  8
39  42  8
53  55  3
32  7  3
33  8  3

$$$$
155488742
  -OEChem-03012215082D

113116  0     1  0  0  0  0  0999 V2000
   21.4481    2.6208    0.0000 S   0  0  0  0  0  0  0  0  0  0  0  0
   25.0995    0.9875    0.0000 S   0  0  0  0  0  0  0  0  0  0  0  0
    5.3548    3.0224    0.0000 P   0  0  0  0  0  0  0  0  0  0  0  0
    8.4752    1.7827    0.0000 P   0  0  3  0  0  0  0  0  0  0  0  0
   10.1980    1.9607    0.0000 P   0  0  3  0  0  0  0  0  0  0  0  0
    5.9405    0.0182    0.0000 O   0  0  0  0  0  0  0  0  0  0  0  0
    4.6844    2.2805    0.0000 O   0  0  0  0  0  0  0  0  0  0  0  0
    3.4026    0.5226    0.0000 O   0  0  0  0  0  0  0  0  0  0  0  0
    7.6651    1.1963    0.0000 O   0  0  0  0  0  0  0  0  0  0  0  0
    6.0252    3.7644    0.0000 O   0  0  0  0  0  0  0  0  0  0  0  0
    4.6128    3.6929    0.0000 O   0  0  0  0  0  0  0  0  0  0  0  0
    9.2852    2.3690    0.0000 O   0  0  0  0  0  0  0  0  0  0  0  0
    6.0968    2.3520    0.0000 O   0  0  0  0  0  0  0  0  0  0  0  0
   11.1109    1.5524    0.0000 O   0  0  0  0  0  0  0  0  0  0  0  0
    9.0615    0.9726    0.0000 O   0  0  0  0  0  0  0  0  0  0  0  0
    7.8888    2.5927    0.0000 O   0  0  0  0  0  0  0  0  0  0  0  0
   13.8494    0.3275    0.0000 O   0  0  0  0  0  0  0  0  0  0  0  0
   10.6063    2.8736    0.0000 O   0  0  0  0  0  0  0  0  0  0  0  0
    9.7897    1.0479    0.0000 O   0  0  0  0  0  0  0  0  0  0  0  0
   14.4538    2.9032    0.0000 O   0  0  0  0  0  0  0  0  0  0  0  0
   17.8996    3.2594    0.0000 O   0  0  0  0  0  0  0  0  0  0  0  0
   24.1866    1.3959    0.0000 O   0  0  0  0  0  0  0  0  0  0  0  0
   22.4638    1.2178    0.0000 O   0  0  0  0  0  0  0  0  0  0  0  0
    4.6783   -1.2397    0.0000 N   0  0  0  0  0  0  0  0  0  0  0  0
    4.6783   -2.8492    0.0000 N   0  0  0  0  0  0  0  0  0  0  0  0
    2.8660   -1.0444    0.0000 N   0  0  0  0  0  0  0  0  0  0  0  0
    2.0000   -2.5444    0.0000 N   0  0  0  0  0  0  0  0  0  0  0  0
    2.8660   -4.0444    0.0000 N   0  0  0  0  0  0  0  0  0  0  0  0
   15.4695    1.5002    0.0000 N   0  0  0  0  0  0  0  0  0  0  0  0
   18.9152    1.8564    0.0000 N   0  0  0  0  0  0  0  0  0  0  0  0
   24.8939    2.9770    0.0000 N   0  0  0  0  0  0  0  0  0  0  0  0
    4.9917    1.3289    0.0000 C   0  0  3  0  0  0  0  0  0  0  0  0
    4.4026    0.5209    0.0000 C   0  0  3  0  0  0  0  0  0  0  0  0
    5.9422    1.0182    0.0000 C   0  0  3  0  0  0  0  0  0  0  0  0
    4.9889   -0.2892    0.0000 C   0  0  3  0  0  0  0  0  0  0  0  0
    6.7523    1.6046    0.0000 C   0  0  0  0  0  0  0  0  0  0  0  0
    3.7320   -1.5444    0.0000 C   0  0  0  0  0  0  0  0  0  0  0  0
    5.2619   -2.0444    0.0000 C   0  0  0  0  0  0  0  0  0  0  0  0
    3.7320   -2.5444    0.0000 C   0  0  0  0  0  0  0  0  0  0  0  0
   12.8337    1.7305    0.0000 C   0  0  0  0  0  0  0  0  0  0  0  0
    2.8660   -3.0444    0.0000 C   0  0  0  0  0  0  0  0  0  0  0  0
   13.7466    1.3222    0.0000 C   0  0  3  0  0  0  0  0  0  0  0  0
   11.9209    2.1388    0.0000 C   0  0  0  0  0  0  0  0  0  0  0  0
   13.2421    2.6433    0.0000 C   0  0  0  0  0  0  0  0  0  0  0  0
   12.4254    0.8176    0.0000 C   0  0  0  0  0  0  0  0  0  0  0  0
    2.0000   -1.5444    0.0000 C   0  0  0  0  0  0  0  0  0  0  0  0
   14.5566    1.9085    0.0000 C   0  0  0  0  0  0  0  0  0  0  0  0
   16.2795    2.0866    0.0000 C   0  0  0  0  0  0  0  0  0  0  0  0
   17.1923    1.6783    0.0000 C   0  0  0  0  0  0  0  0  0  0  0  0
   18.0024    2.2647    0.0000 C   0  0  0  0  0  0  0  0  0  0  0  0
   25.8067    2.5686    0.0000 C   0  0  2  0  0  0  0  0  0  0  0  0
   26.6167    3.1550    0.0000 C   0  0  0  0  0  0  0  0  0  0  0  0
   19.7252    2.4428    0.0000 C   0  0  0  0  0  0  0  0  0  0  0  0
   25.9095    1.5739    0.0000 C   0  0  0  0  0  0  0  0  0  0  0  0
   27.5296    2.7467    0.0000 C   0  0  0  0  0  0  0  0  0  0  0  0
   20.6381    2.0344    0.0000 C   0  0  0  0  0  0  0  0  0  0  0  0
   24.0838    2.3906    0.0000 C   0  0  0  0  0  0  0  0  0  0  0  0
   28.3396    3.3331    0.0000 C   0  0  0  0  0  0  0  0  0  0  0  0
   27.6324    1.7520    0.0000 C   0  0  0  0  0  0  0  0  0  0  0  0
   23.1710    2.7989    0.0000 C   0  0  0  0  0  0  0  0  0  0  0  0
   22.3610    2.2125    0.0000 C   0  0  0  0  0  0  0  0  0  0  0  0
   29.2524    2.9248    0.0000 C   0  0  0  0  0  0  0  0  0  0  0  0
   28.5452    1.3437    0.0000 C   0  0  0  0  0  0  0  0  0  0  0  0
   29.3553    1.9301    0.0000 C   0  0  0  0  0  0  0  0  0  0  0  0
    5.4309    1.7665    0.0000 H   0  0  0  0  0  0  0  0  0  0  0  0
    4.1220    1.0738    0.0000 H   0  0  0  0  0  0  0  0  0  0  0  0
    6.4942    0.7358    0.0000 H   0  0  0  0  0  0  0  0  0  0  0  0
    5.4266   -0.7283    0.0000 H   0  0  0  0  0  0  0  0  0  0  0  0
    7.0999    2.1180    0.0000 H   0  0  0  0  0  0  0  0  0  0  0  0
    6.3070    2.0360    0.0000 H   0  0  0  0  0  0  0  0  0  0  0  0
    3.0935    1.0601    0.0000 H   0  0  0  0  0  0  0  0  0  0  0  0
    5.8819   -2.0444    0.0000 H   0  0  0  0  0  0  0  0  0  0  0  0
   13.2444    0.9586    0.0000 H   0  0  0  0  0  0  0  0  0  0  0  0
   12.2685    2.6522    0.0000 H   0  0  0  0  0  0  0  0  0  0  0  0
   11.4757    2.5702    0.0000 H   0  0  0  0  0  0  0  0  0  0  0  0
   13.8080    2.3902    0.0000 H   0  0  0  0  0  0  0  0  0  0  0  0
   13.4952    3.2093    0.0000 H   0  0  0  0  0  0  0  0  0  0  0  0
   12.6761    2.8965    0.0000 H   0  0  0  0  0  0  0  0  0  0  0  0
   11.8595    1.0708    0.0000 H   0  0  0  0  0  0  0  0  0  0  0  0
   12.1723    0.2517    0.0000 H   0  0  0  0  0  0  0  0  0  0  0  0
   12.9914    0.5645    0.0000 H   0  0  0  0  0  0  0  0  0  0  0  0
    5.8346    4.3544    0.0000 H   0  0  0  0  0  0  0  0  0  0  0  0
    4.0228    3.5023    0.0000 H   0  0  0  0  0  0  0  0  0  0  0  0
    1.4631   -1.2344    0.0000 H   0  0  0  0  0  0  0  0  0  0  0  0
    8.8084    0.4067    0.0000 H   0  0  0  0  0  0  0  0  0  0  0  0
    2.3291   -4.3544    0.0000 H   0  0  0  0  0  0  0  0  0  0  0  0
    3.4030   -4.3544    0.0000 H   0  0  0  0  0  0  0  0  0  0  0  0
   14.4154    0.0743    0.0000 H   0  0  0  0  0  0  0  0  0  0  0  0
   15.5332    0.8835    0.0000 H   0  0  0  0  0  0  0  0  0  0  0  0
   16.6271    2.6000    0.0000 H   0  0  0  0  0  0  0  0  0  0  0  0
   15.8342    2.5181    0.0000 H   0  0  0  0  0  0  0  0  0  0  0  0
   10.2428    3.3758    0.0000 H   0  0  0  0  0  0  0  0  0  0  0  0
   16.8447    1.1649    0.0000 H   0  0  0  0  0  0  0  0  0  0  0  0
   17.6376    1.2468    0.0000 H   0  0  0  0  0  0  0  0  0  0  0  0
   25.3045    2.2051    0.0000 H   0  0  0  0  0  0  0  0  0  0  0  0
   18.9789    1.2396    0.0000 H   0  0  0  0  0  0  0  0  0  0  0  0
   26.9643    3.6684    0.0000 H   0  0  0  0  0  0  0  0  0  0  0  0
   26.1715    3.5865    0.0000 H   0  0  0  0  0  0  0  0  0  0  0  0
   20.0728    2.9562    0.0000 H   0  0  0  0  0  0  0  0  0  0  0  0
   19.2800    2.8742    0.0000 H   0  0  0  0  0  0  0  0  0  0  0  0
   26.1803    1.0162    0.0000 H   0  0  0  0  0  0  0  0  0  0  0  0
   26.5058    1.7438    0.0000 H   0  0  0  0  0  0  0  0  0  0  0  0
   24.8301    3.5937    0.0000 H   0  0  0  0  0  0  0  0  0  0  0  0
   20.2905    1.5210    0.0000 H   0  0  0  0  0  0  0  0  0  0  0  0
   21.0833    1.6030    0.0000 H   0  0  0  0  0  0  0  0  0  0  0  0
   28.2759    3.9498    0.0000 H   0  0  0  0  0  0  0  0  0  0  0  0
   27.1302    1.3884    0.0000 H   0  0  0  0  0  0  0  0  0  0  0  0
   23.5186    3.3123    0.0000 H   0  0  0  0  0  0  0  0  0  0  0  0
   22.7257    3.2303    0.0000 H   0  0  0  0  0  0  0  0  0  0  0  0
   29.7547    3.2883    0.0000 H   0  0  0  0  0  0  0  0  0  0  0  0
   28.6090    0.7270    0.0000 H   0  0  0  0  0  0  0  0  0  0  0  0
   25.1632    0.3708    0.0000 H   0  0  0  0  0  0  0  0  0  0  0  0
   29.9212    1.6769    0.0000 H   0  0  0  0  0  0  0  0  0  0  0  0
  1 56  1  0  0  0  0
  1 61  1  0  0  0  0
  2 54  1  0  0  0  0
  2112  1  0  0  0  0
  3  7  1  0  0  0  0
  3 10  1  0  0  0  0
  3 11  1  0  0  0  0
  3 13  2  0  0  0  0
  4  9  1  0  0  0  0
  4 12  1  0  0  0  0
  4 15  1  0  0  0  0
  4 16  2  0  0  0  0
  5 12  1  0  0  0  0
  5 14  1  0  0  0  0
  5 18  1  0  0  0  0
  5 19  2  0  0  0  0
  6 34  1  0  0  0  0
  6 35  1  0  0  0  0
  7 32  1  0  0  0  0
  8 33  1  0  0  0  0
  8 71  1  0  0  0  0
  9 36  1  0  0  0  0
 10 82  1  0  0  0  0
 11 83  1  0  0  0  0
 14 43  1  0  0  0  0
 15 85  1  0  0  0  0
 17 42  1  0  0  0  0
 17 88  1  0  0  0  0
 18 92  1  0  0  0  0
 20 47  2  0  0  0  0
 21 50  2  0  0  0  0
 22 57  2  0  0  0  0
 23 61  2  0  0  0  0
 24 35  1  0  0  0  0
 24 37  1  0  0  0  0
 24 38  1  0  0  0  0
 25 38  2  0  0  0  0
 25 39  1  0  0  0  0
 26 37  2  0  0  0  0
 26 46  1  0  0  0  0
 27 41  1  0  0  0  0
 27 46  2  0  0  0  0
 28 41  1  0  0  0  0
 28 86  1  0  0  0  0
 28 87  1  0  0  0  0
 29 47  1  0  0  0  0
 29 48  1  0  0  0  0
 29 89  1  0  0  0  0
 30 50  1  0  0  0  0
 30 53  1  0  0  0  0
 30 96  1  0  0  0  0
 51 31  1  6  0  0  0
 31 57  1  0  0  0  0
 31103  1  0  0  0  0
 32 33  1  0  0  0  0
 32 34  1  0  0  0  0
 32 65  1  0  0  0  0
 33 35  1  0  0  0  0
 33 66  1  0  0  0  0
 34 36  1  0  0  0  0
 34 67  1  0  0  0  0
 35 68  1  0  0  0  0
 36 69  1  0  0  0  0
 36 70  1  0  0  0  0
 37 39  1  0  0  0  0
 38 72  1  0  0  0  0
 39 41  2  0  0  0  0
 40 42  1  0  0  0  0
 40 43  1  0  0  0  0
 40 44  1  0  0  0  0
 40 45  1  0  0  0  0
 42 47  1  0  0  0  0
 42 73  1  0  0  0  0
 43 74  1  0  0  0  0
 43 75  1  0  0  0  0
 44 76  1  0  0  0  0
 44 77  1  0  0  0  0
 44 78  1  0  0  0  0
 45 79  1  0  0  0  0
 45 80  1  0  0  0  0
 45 81  1  0  0  0  0
 46 84  1  0  0  0  0
 48 49  1  0  0  0  0
 48 90  1  0  0  0  0
 48 91  1  0  0  0  0
 49 50  1  0  0  0  0
 49 93  1  0  0  0  0
 49 94  1  0  0  0  0
 51 52  1  0  0  0  0
 51 54  1  0  0  0  0
 51 95  1  0  0  0  0
 52 55  1  0  0  0  0
 52 97  1  0  0  0  0
 52 98  1  0  0  0  0
 53 56  1  0  0  0  0
 53 99  1  0  0  0  0
 53100  1  0  0  0  0
 54101  1  0  0  0  0
 54102  1  0  0  0  0
 55 58  2  0  0  0  0
 55 59  1  0  0  0  0
 56104  1  0  0  0  0
 56105  1  0  0  0  0
 57 60  1  0  0  0  0
 58 62  1  0  0  0  0
 58106  1  0  0  0  0
 59 63  2  0  0  0  0
 59107  1  0  0  0  0
 60 61  1  0  0  0  0
 60108  1  0  0  0  0
 60109  1  0  0  0  0
 62 64  2  0  0  0  0
 62110  1  0  0  0  0
 63 64  1  0  0  0  0
 63111  1  0  0  0  0
 64113  1  0  0  0  0
M  END
> <PUBCHEM_COMPOUND_CID>
155488742

> <PUBCHEM_COMPOUND_CANONICALIZED>
1

> <PUBCHEM_CACTVS_COMPLEXITY>
1740

> <PUBCHEM_CACTVS_HBOND_ACCEPTOR>
24

> <PUBCHEM_CACTVS_HBOND_DONOR>
11

> <PUBCHEM_CACTVS_ROTATABLE_BOND>
26

> <PUBCHEM_CACTVS_SUBSKEYS>
AAADcfB//gNgAAAAAAAAAAAAAAAAAWJAAAA8QAAAAAAAAFgB/AAAHgQQCCAADjzl3wa38L/MFxyoQydzdIKCgC0xELAJ2KFoVJiLeDro2VGeZAgvlgL7iCfysIIPAAAAAAAAAAAAAAAAAAAAAAAAAAAAAA==

> <PUBCHEM_IUPAC_OPENEYE_NAME>
S-[2-[3-[[4-[[[5-(6-aminopurin-9-yl)-4-hydroxy-3-phosphonooxy-tetrahydrofuran-2-yl]methoxy-hydroxy-phosphoryl]oxy-hydroxy-phosphoryl]oxy-2-hydroxy-3,3-dimethyl-butanoyl]amino]propanoylamino]ethyl] 3-[[(1R)-1-benzyl-2-sulfanyl-ethyl]amino]-3-oxo-propanethioate

> <PUBCHEM_IUPAC_CAS_NAME>
3-[[(2R)-1-mercapto-3-phenylpropan-2-yl]amino]-3-oxopropanethioic acid S-[2-[[3-[[4-[[[5-(6-aminopurin-9-yl)-4-hydroxy-3-phosphonooxy-2-oxolanyl]methoxy-hydroxyphosphoryl]oxy-hydroxyphosphoryl]oxy-2-hydroxy-3,3-dimethyl-1-oxobutyl]amino]-1-oxopropyl]amino]ethyl] ester

> <PUBCHEM_IUPAC_NAME_MARKUP>
<I>S</I>-[2-[3-[[4-[[[5-(6-aminopurin-9-yl)-4-hydroxy-3-phosphonooxyoxolan-2-yl]methoxy-hydroxyphosphoryl]oxy-hydroxyphosphoryl]oxy-2-hydroxy-3,3-dimethylbutanoyl]amino]propanoylamino]ethyl] 3-oxo-3-[[(2<I>R</I>)-1-phenyl-3-sulfanylpropan-2-yl]amino]propanethioate

> <PUBCHEM_IUPAC_NAME>
S-[2-[3-[[4-[[[5-(6-aminopurin-9-yl)-4-hydroxy-3-phosphonooxyoxolan-2-yl]methoxy-hydroxyphosphoryl]oxy-hydroxyphosphoryl]oxy-2-hydroxy-3,3-dimethylbutanoyl]amino]propanoylamino]ethyl] 3-oxo-3-[[(2R)-1-phenyl-3-sulfanylpropan-2-yl]amino]propanethioate

> <PUBCHEM_IUPAC_SYSTEMATIC_NAME>
S-[2-[3-[[4-[[[5-(6-aminopurin-9-yl)-4-oxidanyl-3-phosphonooxy-oxolan-2-yl]methoxy-oxidanyl-phosphoryl]oxy-oxidanyl-phosphoryl]oxy-3,3-dimethyl-2-oxidanyl-butanoyl]amino]propanoylamino]ethyl] 3-oxidanylidene-3-[[(2R)-1-phenyl-3-sulfanyl-propan-2-yl]amino]propanethioate

> <PUBCHEM_IUPAC_TRADITIONAL_NAME>
3-[[(1R)-1-benzyl-2-mercapto-ethyl]amino]-3-keto-propanethioic acid S-[2-[3-[[4-[[(5-adenin-9-yl-4-hydroxy-3-phosphonooxy-tetrahydrofuran-2-yl)methoxy-hydroxy-phosphoryl]oxy-hydroxy-phosphoryl]oxy-2-hydroxy-3,3-dimethyl-butanoyl]amino]propanoylamino]ethyl] ester

> <PUBCHEM_IUPAC_INCHI>
InChI=1S/C33H49N8O18P3S2/c1-33(2,28(46)31(47)36-9-8-22(42)35-10-11-64-24(44)13-23(43)40-20(15-63)12-19-6-4-3-5-7-19)16-56-62(53,54)59-61(51,52)55-14-21-27(58-60(48,49)50)26(45)32(57-21)41-18-39-25-29(34)37-17-38-30(25)41/h3-7,17-18,20-21,26-28,32,45-46,63H,8-16H2,1-2H3,(H,35,42)(H,36,47)(H,40,43)(H,51,52)(H,53,54)(H2,34,37,38)(H2,48,49,50)/t20-,21?,26?,27?,28?,32?/m1/s1

> <PUBCHEM_IUPAC_INCHIKEY>
ANWGGQQLZKKUGH-BBRHFLASSA-N

> <PUBCHEM_XLOGP3_AA>
-3.9

> <PUBCHEM_EXACT_MASS>
1002.18191008

> <PUBCHEM_MOLECULAR_FORMULA>
C33H49N8O18P3S2

> <PUBCHEM_MOLECULAR_WEIGHT>
1002.8

> <PUBCHEM_OPENEYE_CAN_SMILES>
CC(C)(COP(=O)(O)OP(=O)(O)OCC1C(C(C(O1)N2C=NC3=C(N=CN=C32)N)O)OP(=O)(O)O)C(C(=O)NCCC(=O)NCCSC(=O)CC(=O)NC(CC4=CC=CC=C4)CS)O

> <PUBCHEM_OPENEYE_ISO_SMILES>
CC(C)(COP(=O)(O)OP(=O)(O)OCC1C(C(C(O1)N2C=NC3=C(N=CN=C32)N)O)OP(=O)(O)O)C(C(=O)NCCC(=O)NCCSC(=O)CC(=O)N[C@H](CC4=CC=CC=C4)CS)O

> <PUBCHEM_CACTVS_TPSA>
419

> <PUBCHEM_MONOISOTOPIC_WEIGHT>
1002.18191008

> <PUBCHEM_TOTAL_CHARGE>
0

> <PUBCHEM_HEAVY_ATOM_COUNT>
64

> <PUBCHEM_ATOM_DEF_STEREO_COUNT>
1

> <PUBCHEM_ATOM_UDEF_STEREO_COUNT>
5

> <PUBCHEM_BOND_DEF_STEREO_COUNT>
0

> <PUBCHEM_BOND_UDEF_STEREO_COUNT>
0

> <PUBCHEM_ISOTOPIC_ATOM_COUNT>
0

> <PUBCHEM_COMPONENT_COUNT>
1

> <PUBCHEM_CACTVS_TAUTO_COUNT>
-1

> <PUBCHEM_COORDINATE_TYPE>
1
5
255

> <PUBCHEM_BONDANNOTATIONS>
42  17  3
35  24  3
24  37  8
24  38  8
25  38  8
25  39  8
26  37  8
26  46  8
27  41  8
27  46  8
51  31  6
34  36  3
37  39  8
39  41  8
55  58  8
55  59  8
58  62  8
59  63  8
62  64  8
63  64  8
32  7  3
33  8  3

$$$$
155488768
  -OEChem-03012215082D

154159  0     1  0  0  0  0  0999 V2000
   21.4481    0.1044    0.0000 S   0  0  0  0  0  0  0  0  0  0  0  0
    5.3548    0.5060    0.0000 P   0  0  0  0  0  0  0  0  0  0  0  0
    8.4752   -0.7338    0.0000 P   0  0  3  0  0  0  0  0  0  0  0  0
   10.1980   -0.5557    0.0000 P   0  0  3  0  0  0  0  0  0  0  0  0
    5.9405   -2.4982    0.0000 O   0  0  0  0  0  0  0  0  0  0  0  0
    4.6844   -0.2360    0.0000 O   0  0  0  0  0  0  0  0  0  0  0  0
    3.4026   -1.9938    0.0000 O   0  0  0  0  0  0  0  0  0  0  0  0
    7.6651   -1.3202    0.0000 O   0  0  0  0  0  0  0  0  0  0  0  0
    6.0252    1.2480    0.0000 O   0  0  0  0  0  0  0  0  0  0  0  0
    4.6128    1.1764    0.0000 O   0  0  0  0  0  0  0  0  0  0  0  0
    6.0968   -0.1644    0.0000 O   0  0  0  0  0  0  0  0  0  0  0  0
    9.2852   -0.1474    0.0000 O   0  0  0  0  0  0  0  0  0  0  0  0
    9.0615   -1.5438    0.0000 O   0  0  0  0  0  0  0  0  0  0  0  0
    7.8888    0.0762    0.0000 O   0  0  0  0  0  0  0  0  0  0  0  0
   11.1109   -0.9640    0.0000 O   0  0  0  0  0  0  0  0  0  0  0  0
   13.8494   -2.1890    0.0000 O   0  0  0  0  0  0  0  0  0  0  0  0
   10.6063    0.3571    0.0000 O   0  0  0  0  0  0  0  0  0  0  0  0
    9.7897   -1.4686    0.0000 O   0  0  0  0  0  0  0  0  0  0  0  0
   14.4538    0.3868    0.0000 O   0  0  0  0  0  0  0  0  0  0  0  0
   25.0995   -1.5289    0.0000 O   0  0  0  0  0  0  0  0  0  0  0  0
   17.8996    0.7429    0.0000 O   0  0  0  0  0  0  0  0  0  0  0  0
   22.4638   -1.2986    0.0000 O   0  0  0  0  0  0  0  0  0  0  0  0
   28.0312    3.8007    0.0000 O   0  0  0  0  0  0  0  0  0  0  0  0
    4.6783   -3.7561    0.0000 N   0  0  0  0  0  0  0  0  0  0  0  0
    4.6783   -5.3656    0.0000 N   0  0  0  0  0  0  0  0  0  0  0  0
    2.8660   -3.5609    0.0000 N   0  0  0  0  0  0  0  0  0  0  0  0
    2.0000   -5.0609    0.0000 N   0  0  0  0  0  0  0  0  0  0  0  0
    2.8660   -6.5609    0.0000 N   0  0  0  0  0  0  0  0  0  0  0  0
   15.4695   -1.0162    0.0000 N   0  0  0  0  0  0  0  0  0  0  0  0
   25.8067    0.0522    0.0000 N   0  0  0  0  0  0  0  0  0  0  0  0
   18.9152   -0.6601    0.0000 N   0  0  0  0  0  0  0  0  0  0  0  0
    4.9917   -1.1876    0.0000 C   0  0  3  0  0  0  0  0  0  0  0  0
    4.4026   -1.9956    0.0000 C   0  0  3  0  0  0  0  0  0  0  0  0
    5.9422   -1.4982    0.0000 C   0  0  3  0  0  0  0  0  0  0  0  0
    4.9889   -2.8056    0.0000 C   0  0  3  0  0  0  0  0  0  0  0  0
    6.7523   -0.9119    0.0000 C   0  0  0  0  0  0  0  0  0  0  0  0
    3.7320   -4.0609    0.0000 C   0  0  0  0  0  0  0  0  0  0  0  0
    5.2619   -4.5609    0.0000 C   0  0  0  0  0  0  0  0  0  0  0  0
    3.7320   -5.0609    0.0000 C   0  0  0  0  0  0  0  0  0  0  0  0
    2.8660   -5.5609    0.0000 C   0  0  0  0  0  0  0  0  0  0  0  0
   12.8337   -0.7860    0.0000 C   0  0  0  0  0  0  0  0  0  0  0  0
    2.0000   -4.0609    0.0000 C   0  0  0  0  0  0  0  0  0  0  0  0
   11.9209   -0.3777    0.0000 C   0  0  0  0  0  0  0  0  0  0  0  0
   13.7466   -1.1943    0.0000 C   0  0  3  0  0  0  0  0  0  0  0  0
   13.2421    0.1269    0.0000 C   0  0  0  0  0  0  0  0  0  0  0  0
   12.4254   -1.6988    0.0000 C   0  0  0  0  0  0  0  0  0  0  0  0
   14.5566   -0.6079    0.0000 C   0  0  0  0  0  0  0  0  0  0  0  0
   24.8939    0.4605    0.0000 C   0  0  3  0  0  0  0  0  0  0  0  0
   24.0838   -0.1259    0.0000 C   0  0  0  0  0  0  0  0  0  0  0  0
   16.2795   -0.4298    0.0000 C   0  0  0  0  0  0  0  0  0  0  0  0
   24.7910    1.4552    0.0000 C   0  0  0  0  0  0  0  0  0  0  0  0
   26.9252   -2.3455    0.0000 C   0  0  0  0  0  0  0  0  0  0  0  0
   27.8380   -2.7538    0.0000 C   0  0  0  0  0  0  0  0  0  0  0  0
   26.8223   -1.3508    0.0000 C   0  0  0  0  0  0  0  0  0  0  0  0
   27.9408   -3.7486    0.0000 C   0  0  0  0  0  0  0  0  0  0  0  0
   23.1710    0.2824    0.0000 C   0  0  0  0  0  0  0  0  0  0  0  0
   17.1923   -0.8382    0.0000 C   0  0  0  0  0  0  0  0  0  0  0  0
   25.9095   -0.9425    0.0000 C   0  0  0  0  0  0  0  0  0  0  0  0
   25.6011    2.0416    0.0000 C   0  0  0  0  0  0  0  0  0  0  0  0
   28.8536   -4.1569    0.0000 C   0  0  0  0  0  0  0  0  0  0  0  0
   28.9564   -5.1516    0.0000 C   0  0  0  0  0  0  0  0  0  0  0  0
   18.0024   -0.2518    0.0000 C   0  0  0  0  0  0  0  0  0  0  0  0
   22.3610   -0.3040    0.0000 C   0  0  0  0  0  0  0  0  0  0  0  0
   25.4983    3.0363    0.0000 C   0  0  0  0  0  0  0  0  0  0  0  0
   26.5139    1.6333    0.0000 C   0  0  0  0  0  0  0  0  0  0  0  0
   29.8693   -5.5599    0.0000 C   0  0  0  0  0  0  0  0  0  0  0  0
   19.7252   -0.0737    0.0000 C   0  0  0  0  0  0  0  0  0  0  0  0
   26.3083    3.6227    0.0000 C   0  0  0  0  0  0  0  0  0  0  0  0
   27.3240    2.2196    0.0000 C   0  0  0  0  0  0  0  0  0  0  0  0
   20.6381   -0.4820    0.0000 C   0  0  0  0  0  0  0  0  0  0  0  0
   27.2211    3.2144    0.0000 C   0  0  0  0  0  0  0  0  0  0  0  0
   30.6793   -4.9735    0.0000 C   0  0  0  0  0  0  0  0  0  0  0  0
   29.9721   -6.5546    0.0000 C   0  0  0  0  0  0  0  0  0  0  0  0
   31.5922   -5.3818    0.0000 C   0  0  0  0  0  0  0  0  0  0  0  0
   30.8849   -6.9629    0.0000 C   0  0  0  0  0  0  0  0  0  0  0  0
   31.6950   -6.3765    0.0000 C   0  0  0  0  0  0  0  0  0  0  0  0
   27.9284    4.7954    0.0000 C   0  0  0  0  0  0  0  0  0  0  0  0
   28.7384    5.3818    0.0000 C   0  0  0  0  0  0  0  0  0  0  0  0
   28.6356    6.3765    0.0000 C   0  0  0  0  0  0  0  0  0  0  0  0
   29.6512    4.9735    0.0000 C   0  0  0  0  0  0  0  0  0  0  0  0
   29.4456    6.9629    0.0000 C   0  0  0  0  0  0  0  0  0  0  0  0
   30.4613    5.5599    0.0000 C   0  0  0  0  0  0  0  0  0  0  0  0
   30.3585    6.5546    0.0000 C   0  0  0  0  0  0  0  0  0  0  0  0
    5.4309   -0.7499    0.0000 H   0  0  0  0  0  0  0  0  0  0  0  0
    4.1220   -1.4427    0.0000 H   0  0  0  0  0  0  0  0  0  0  0  0
    6.4942   -1.7807    0.0000 H   0  0  0  0  0  0  0  0  0  0  0  0
    5.4266   -3.2448    0.0000 H   0  0  0  0  0  0  0  0  0  0  0  0
    7.0999   -0.3985    0.0000 H   0  0  0  0  0  0  0  0  0  0  0  0
    6.3070   -0.4804    0.0000 H   0  0  0  0  0  0  0  0  0  0  0  0
    3.0935   -1.4564    0.0000 H   0  0  0  0  0  0  0  0  0  0  0  0
    5.8819   -4.5609    0.0000 H   0  0  0  0  0  0  0  0  0  0  0  0
    5.8346    1.8380    0.0000 H   0  0  0  0  0  0  0  0  0  0  0  0
    4.0228    0.9858    0.0000 H   0  0  0  0  0  0  0  0  0  0  0  0
    1.4631   -3.7509    0.0000 H   0  0  0  0  0  0  0  0  0  0  0  0
   12.2685    0.1357    0.0000 H   0  0  0  0  0  0  0  0  0  0  0  0
   11.4757    0.0538    0.0000 H   0  0  0  0  0  0  0  0  0  0  0  0
   13.2444   -1.5578    0.0000 H   0  0  0  0  0  0  0  0  0  0  0  0
    2.3291   -6.8709    0.0000 H   0  0  0  0  0  0  0  0  0  0  0  0
    3.4030   -6.8709    0.0000 H   0  0  0  0  0  0  0  0  0  0  0  0
    8.8084   -2.1098    0.0000 H   0  0  0  0  0  0  0  0  0  0  0  0
   13.8080   -0.1263    0.0000 H   0  0  0  0  0  0  0  0  0  0  0  0
   13.4952    0.6928    0.0000 H   0  0  0  0  0  0  0  0  0  0  0  0
   12.6761    0.3800    0.0000 H   0  0  0  0  0  0  0  0  0  0  0  0
   11.8595   -1.4457    0.0000 H   0  0  0  0  0  0  0  0  0  0  0  0
   12.1723   -2.2648    0.0000 H   0  0  0  0  0  0  0  0  0  0  0  0
   12.9914   -1.9520    0.0000 H   0  0  0  0  0  0  0  0  0  0  0  0
   14.4154   -2.4422    0.0000 H   0  0  0  0  0  0  0  0  0  0  0  0
   10.2428    0.8593    0.0000 H   0  0  0  0  0  0  0  0  0  0  0  0
   15.5332   -1.6329    0.0000 H   0  0  0  0  0  0  0  0  0  0  0  0
   25.3961    0.8241    0.0000 H   0  0  0  0  0  0  0  0  0  0  0  0
   23.7362   -0.6393    0.0000 H   0  0  0  0  0  0  0  0  0  0  0  0
   24.5291   -0.5573    0.0000 H   0  0  0  0  0  0  0  0  0  0  0  0
   24.5202    2.0129    0.0000 H   0  0  0  0  0  0  0  0  0  0  0  0
   24.1948    1.2853    0.0000 H   0  0  0  0  0  0  0  0  0  0  0  0
   16.6271    0.0836    0.0000 H   0  0  0  0  0  0  0  0  0  0  0  0
   15.8342    0.0016    0.0000 H   0  0  0  0  0  0  0  0  0  0  0  0
   26.3067   -2.3012    0.0000 H   0  0  0  0  0  0  0  0  0  0  0  0
   26.7741   -2.9469    0.0000 H   0  0  0  0  0  0  0  0  0  0  0  0
   28.4564   -2.7982    0.0000 H   0  0  0  0  0  0  0  0  0  0  0  0
   27.9890   -2.1525    0.0000 H   0  0  0  0  0  0  0  0  0  0  0  0
   26.3089    0.4157    0.0000 H   0  0  0  0  0  0  0  0  0  0  0  0
   27.4408   -1.3952    0.0000 H   0  0  0  0  0  0  0  0  0  0  0  0
   26.9734   -0.7495    0.0000 H   0  0  0  0  0  0  0  0  0  0  0  0
   27.3224   -3.7042    0.0000 H   0  0  0  0  0  0  0  0  0  0  0  0
   27.7898   -4.3499    0.0000 H   0  0  0  0  0  0  0  0  0  0  0  0
   23.5186    0.7958    0.0000 H   0  0  0  0  0  0  0  0  0  0  0  0
   22.7257    0.7139    0.0000 H   0  0  0  0  0  0  0  0  0  0  0  0
   16.8447   -1.3516    0.0000 H   0  0  0  0  0  0  0  0  0  0  0  0
   17.6376   -1.2696    0.0000 H   0  0  0  0  0  0  0  0  0  0  0  0
   29.4721   -4.2012    0.0000 H   0  0  0  0  0  0  0  0  0  0  0  0
   29.0047   -3.5556    0.0000 H   0  0  0  0  0  0  0  0  0  0  0  0
   28.3380   -5.1072    0.0000 H   0  0  0  0  0  0  0  0  0  0  0  0
   28.8054   -5.7529    0.0000 H   0  0  0  0  0  0  0  0  0  0  0  0
   24.9323    3.2894    0.0000 H   0  0  0  0  0  0  0  0  0  0  0  0
   26.5777    1.0166    0.0000 H   0  0  0  0  0  0  0  0  0  0  0  0
   18.9789   -1.2768    0.0000 H   0  0  0  0  0  0  0  0  0  0  0  0
   20.0728    0.4397    0.0000 H   0  0  0  0  0  0  0  0  0  0  0  0
   19.2800    0.3578    0.0000 H   0  0  0  0  0  0  0  0  0  0  0  0
   26.2446    4.2394    0.0000 H   0  0  0  0  0  0  0  0  0  0  0  0
   27.8899    1.9665    0.0000 H   0  0  0  0  0  0  0  0  0  0  0  0
   20.2905   -0.9954    0.0000 H   0  0  0  0  0  0  0  0  0  0  0  0
   21.0833   -0.9135    0.0000 H   0  0  0  0  0  0  0  0  0  0  0  0
   30.6156   -4.3568    0.0000 H   0  0  0  0  0  0  0  0  0  0  0  0
   29.4699   -6.9182    0.0000 H   0  0  0  0  0  0  0  0  0  0  0  0
   32.0944   -5.0183    0.0000 H   0  0  0  0  0  0  0  0  0  0  0  0
   30.9487   -7.5796    0.0000 H   0  0  0  0  0  0  0  0  0  0  0  0
   32.2609   -6.6297    0.0000 H   0  0  0  0  0  0  0  0  0  0  0  0
   27.6575    5.3532    0.0000 H   0  0  0  0  0  0  0  0  0  0  0  0
   27.3321    4.6256    0.0000 H   0  0  0  0  0  0  0  0  0  0  0  0
   28.0696    6.6297    0.0000 H   0  0  0  0  0  0  0  0  0  0  0  0
   29.7150    4.3568    0.0000 H   0  0  0  0  0  0  0  0  0  0  0  0
   29.3819    7.5796    0.0000 H   0  0  0  0  0  0  0  0  0  0  0  0
   31.0272    5.3067    0.0000 H   0  0  0  0  0  0  0  0  0  0  0  0
   30.8607    6.9182    0.0000 H   0  0  0  0  0  0  0  0  0  0  0  0
  1 63  1  0  0  0  0
  1 70  1  0  0  0  0
  2  6  1  0  0  0  0
  2  9  1  0  0  0  0
  2 10  1  0  0  0  0
  2 11  2  0  0  0  0
  3  8  1  0  0  0  0
  3 12  1  0  0  0  0
  3 13  1  0  0  0  0
  3 14  2  0  0  0  0
  4 12  1  0  0  0  0
  4 15  1  0  0  0  0
  4 17  1  0  0  0  0
  4 18  2  0  0  0  0
  5 34  1  0  0  0  0
  5 35  1  0  0  0  0
  6 32  1  0  0  0  0
  7 33  1  0  0  0  0
  7 90  1  0  0  0  0
  8 36  1  0  0  0  0
  9 92  1  0  0  0  0
 10 93  1  0  0  0  0
 13100  1  0  0  0  0
 15 43  1  0  0  0  0
 16 44  1  0  0  0  0
 16107  1  0  0  0  0
 17108  1  0  0  0  0
 19 47  2  0  0  0  0
 20 58  2  0  0  0  0
 21 62  2  0  0  0  0
 22 63  2  0  0  0  0
 23 71  1  0  0  0  0
 23 77  1  0  0  0  0
 24 35  1  0  0  0  0
 24 37  1  0  0  0  0
 24 38  1  0  0  0  0
 25 38  2  0  0  0  0
 25 39  1  0  0  0  0
 26 37  2  0  0  0  0
 26 42  1  0  0  0  0
 27 40  1  0  0  0  0
 27 42  2  0  0  0  0
 28 40  1  0  0  0  0
 28 98  1  0  0  0  0
 28 99  1  0  0  0  0
 29 47  1  0  0  0  0
 29 50  1  0  0  0  0
 29109  1  0  0  0  0
 30 48  1  0  0  0  0
 30 58  1  0  0  0  0
 30121  1  0  0  0  0
 31 62  1  0  0  0  0
 31 67  1  0  0  0  0
 31136  1  0  0  0  0
 32 33  1  0  0  0  0
 32 34  1  0  0  0  0
 32 84  1  0  0  0  0
 33 35  1  0  0  0  0
 33 85  1  0  0  0  0
 34 36  1  0  0  0  0
 34 86  1  0  0  0  0
 35 87  1  0  0  0  0
 36 88  1  0  0  0  0
 36 89  1  0  0  0  0
 37 39  1  0  0  0  0
 38 91  1  0  0  0  0
 39 40  2  0  0  0  0
 41 43  1  0  0  0  0
 41 44  1  0  0  0  0
 41 45  1  0  0  0  0
 41 46  1  0  0  0  0
 42 94  1  0  0  0  0
 43 95  1  0  0  0  0
 43 96  1  0  0  0  0
 44 47  1  0  0  0  0
 44 97  1  0  0  0  0
 45101  1  0  0  0  0
 45102  1  0  0  0  0
 45103  1  0  0  0  0
 46104  1  0  0  0  0
 46105  1  0  0  0  0
 46106  1  0  0  0  0
 48 49  1  0  0  0  0
 48 51  1  0  0  0  0
 48110  1  0  0  0  0
 49 56  1  0  0  0  0
 49111  1  0  0  0  0
 49112  1  0  0  0  0
 50 57  1  0  0  0  0
 50115  1  0  0  0  0
 50116  1  0  0  0  0
 51 59  1  0  0  0  0
 51113  1  0  0  0  0
 51114  1  0  0  0  0
 52 53  1  0  0  0  0
 52 54  1  0  0  0  0
 52117  1  0  0  0  0
 52118  1  0  0  0  0
 53 55  1  0  0  0  0
 53119  1  0  0  0  0
 53120  1  0  0  0  0
 54 58  1  0  0  0  0
 54122  1  0  0  0  0
 54123  1  0  0  0  0
 55 60  1  0  0  0  0
 55124  1  0  0  0  0
 55125  1  0  0  0  0
 56 63  1  0  0  0  0
 56126  1  0  0  0  0
 56127  1  0  0  0  0
 57 62  1  0  0  0  0
 57128  1  0  0  0  0
 57129  1  0  0  0  0
 59 64  2  0  0  0  0
 59 65  1  0  0  0  0
 60 61  1  0  0  0  0
 60130  1  0  0  0  0
 60131  1  0  0  0  0
 61 66  1  0  0  0  0
 61132  1  0  0  0  0
 61133  1  0  0  0  0
 64 68  1  0  0  0  0
 64134  1  0  0  0  0
 65 69  2  0  0  0  0
 65135  1  0  0  0  0
 66 72  2  0  0  0  0
 66 73  1  0  0  0  0
 67 70  1  0  0  0  0
 67137  1  0  0  0  0
 67138  1  0  0  0  0
 68 71  2  0  0  0  0
 68139  1  0  0  0  0
 69 71  1  0  0  0  0
 69140  1  0  0  0  0
 70141  1  0  0  0  0
 70142  1  0  0  0  0
 72 74  1  0  0  0  0
 72143  1  0  0  0  0
 73 75  2  0  0  0  0
 73144  1  0  0  0  0
 74 76  2  0  0  0  0
 74145  1  0  0  0  0
 75 76  1  0  0  0  0
 75146  1  0  0  0  0
 76147  1  0  0  0  0
 77 78  1  0  0  0  0
 77148  1  0  0  0  0
 77149  1  0  0  0  0
 78 79  2  0  0  0  0
 78 80  1  0  0  0  0
 79 81  1  0  0  0  0
 79150  1  0  0  0  0
 80 82  2  0  0  0  0
 80151  1  0  0  0  0
 81 83  2  0  0  0  0
 81152  1  0  0  0  0
 82 83  1  0  0  0  0
 82153  1  0  0  0  0
 83154  1  0  0  0  0
M  END
> <PUBCHEM_COMPOUND_CID>
155488768

> <PUBCHEM_COMPOUND_CANONICALIZED>
1

> <PUBCHEM_CACTVS_COMPLEXITY>
2180

> <PUBCHEM_CACTVS_HBOND_ACCEPTOR>
24

> <PUBCHEM_CACTVS_HBOND_DONOR>
10

> <PUBCHEM_CACTVS_ROTATABLE_BOND>
36

> <PUBCHEM_CACTVS_SUBSKEYS>
AAADcfB//gNAAAAAAAAAAAAAAAAAAWJAAAA8YMEAAAAAAFgB/AAAHgQQCCAADjzl3wa39r/MFxioQydzdIKCiC0xMLAJ2KFuXJiPfjrk+VuefCiv1hP7qCf++OKPIAAAAAAAAABAAAAAAAAAAAAAAAAAAA==

> <PUBCHEM_IUPAC_OPENEYE_NAME>
S-[2-[3-[[4-[[[5-(6-aminopurin-9-yl)-4-hydroxy-3-phosphonooxy-tetrahydrofuran-2-yl]methoxy-hydroxy-phosphoryl]oxy-hydroxy-phosphoryl]oxy-2-hydroxy-3,3-dimethyl-butanoyl]amino]propanoylamino]ethyl] 5-(4-benzyloxyphenyl)-4-(7-phenylheptanoylamino)pentanethioate

> <PUBCHEM_IUPAC_CAS_NAME>
4-[(1-oxo-7-phenylheptyl)amino]-5-(4-phenylmethoxyphenyl)pentanethioic acid S-[2-[[3-[[4-[[[5-(6-aminopurin-9-yl)-4-hydroxy-3-phosphonooxy-2-oxolanyl]methoxy-hydroxyphosphoryl]oxy-hydroxyphosphoryl]oxy-2-hydroxy-3,3-dimethyl-1-oxobutyl]amino]-1-oxopropyl]amino]ethyl] ester

> <PUBCHEM_IUPAC_NAME_MARKUP>
<I>S</I>-[2-[3-[[4-[[[5-(6-aminopurin-9-yl)-4-hydroxy-3-phosphonooxyoxolan-2-yl]methoxy-hydroxyphosphoryl]oxy-hydroxyphosphoryl]oxy-2-hydroxy-3,3-dimethylbutanoyl]amino]propanoylamino]ethyl] 4-(7-phenylheptanoylamino)-5-(4-phenylmethoxyphenyl)pentanethioate

> <PUBCHEM_IUPAC_NAME>
S-[2-[3-[[4-[[[5-(6-aminopurin-9-yl)-4-hydroxy-3-phosphonooxyoxolan-2-yl]methoxy-hydroxyphosphoryl]oxy-hydroxyphosphoryl]oxy-2-hydroxy-3,3-dimethylbutanoyl]amino]propanoylamino]ethyl] 4-(7-phenylheptanoylamino)-5-(4-phenylmethoxyphenyl)pentanethioate

> <PUBCHEM_IUPAC_SYSTEMATIC_NAME>
S-[2-[3-[[4-[[[5-(6-aminopurin-9-yl)-4-oxidanyl-3-phosphonooxy-oxolan-2-yl]methoxy-oxidanyl-phosphoryl]oxy-oxidanyl-phosphoryl]oxy-3,3-dimethyl-2-oxidanyl-butanoyl]amino]propanoylamino]ethyl] 4-(7-phenylheptanoylamino)-5-(4-phenylmethoxyphenyl)pentanethioate

> <PUBCHEM_IUPAC_TRADITIONAL_NAME>
5-(4-benzoxyphenyl)-4-(7-phenylheptanoylamino)pentanethioic acid S-[2-[3-[[4-[[(5-adenin-9-yl-4-hydroxy-3-phosphonooxy-tetrahydrofuran-2-yl)methoxy-hydroxy-phosphoryl]oxy-hydroxy-phosphoryl]oxy-2-hydroxy-3,3-dimethyl-butanoyl]amino]propanoylamino]ethyl] ester

> <PUBCHEM_IUPAC_INCHI>
InChI=1S/C52H71N8O19P3S/c1-52(2,32-76-82(72,73)79-81(70,71)75-31-40-46(78-80(67,68)69)45(64)51(77-40)60-34-58-44-48(53)56-33-57-49(44)60)47(65)50(66)55-26-25-41(61)54-27-28-83-43(63)24-21-38(59-42(62)18-12-4-3-7-13-35-14-8-5-9-15-35)29-36-19-22-39(23-20-36)74-30-37-16-10-6-11-17-37/h5-6,8-11,14-17,19-20,22-23,33-34,38,40,45-47,51,64-65H,3-4,7,12-13,18,21,24-32H2,1-2H3,(H,54,61)(H,55,66)(H,59,62)(H,70,71)(H,72,73)(H2,53,56,57)(H2,67,68,69)

> <PUBCHEM_IUPAC_INCHIKEY>
BFGLRVXYFLRLKT-UHFFFAOYSA-N

> <PUBCHEM_XLOGP3_AA>
1.3

> <PUBCHEM_EXACT_MASS>
1236.37690423

> <PUBCHEM_MOLECULAR_FORMULA>
C52H71N8O19P3S

> <PUBCHEM_MOLECULAR_WEIGHT>
1237.1

> <PUBCHEM_OPENEYE_CAN_SMILES>
CC(C)(COP(=O)(O)OP(=O)(O)OCC1C(C(C(O1)N2C=NC3=C(N=CN=C32)N)O)OP(=O)(O)O)C(C(=O)NCCC(=O)NCCSC(=O)CCC(CC4=CC=C(C=C4)OCC5=CC=CC=C5)NC(=O)CCCCCCC6=CC=CC=C6)O

> <PUBCHEM_OPENEYE_ISO_SMILES>
CC(C)(COP(=O)(O)OP(=O)(O)OCC1C(C(C(O1)N2C=NC3=C(N=CN=C32)N)O)OP(=O)(O)O)C(C(=O)NCCC(=O)NCCSC(=O)CCC(CC4=CC=C(C=C4)OCC5=CC=CC=C5)NC(=O)CCCCCCC6=CC=CC=C6)O

> <PUBCHEM_CACTVS_TPSA>
427

> <PUBCHEM_MONOISOTOPIC_WEIGHT>
1236.37690423

> <PUBCHEM_TOTAL_CHARGE>
0

> <PUBCHEM_HEAVY_ATOM_COUNT>
83

> <PUBCHEM_ATOM_DEF_STEREO_COUNT>
0

> <PUBCHEM_ATOM_UDEF_STEREO_COUNT>
6

> <PUBCHEM_BOND_DEF_STEREO_COUNT>
0

> <PUBCHEM_BOND_UDEF_STEREO_COUNT>
0

> <PUBCHEM_ISOTOPIC_ATOM_COUNT>
0

> <PUBCHEM_COMPONENT_COUNT>
1

> <PUBCHEM_CACTVS_TAUTO_COUNT>
-1

> <PUBCHEM_COORDINATE_TYPE>
1
5
255

> <PUBCHEM_BONDANNOTATIONS>
44  16  3
35  24  3
24  37  8
24  38  8
25  38  8
25  39  8
26  37  8
26  42  8
27  40  8
27  42  8
34  36  3
37  39  8
39  40  8
48  49  3
59  64  8
59  65  8
32  6  3
64  68  8
65  69  8
66  72  8
66  73  8
68  71  8
69  71  8
33  7  3
72  74  8
73  75  8
74  76  8
75  76  8
78  79  8
78  80  8
79  81  8
80  82  8
81  83  8
82  83  8

$$$$
155488773
  -OEChem-03012215082D

170176  0     1  0  0  0  0  0999 V2000
   13.4345   -1.6208    0.0000 S   0  0  0  0  0  0  0  0  0  0  0  0
   25.5403    7.8759    0.0000 P   0  0  0  0  0  0  0  0  0  0  0  0
   21.7552    8.3675    0.0000 P   0  0  3  0  0  0  0  0  0  0  0  0
   20.5962    7.0803    0.0000 P   0  0  3  0  0  0  0  0  0  0  0  0
    3.0800  -10.3730    0.0000 P   0  0  0  0  0  0  0  0  0  0  0  0
   24.1742   10.9147    0.0000 O   0  0  0  0  0  0  0  0  0  0  0  0
   24.6742    8.3759    0.0000 O   0  0  0  0  0  0  0  0  0  0  0  0
   26.4343    9.6546    0.0000 O   0  0  0  0  0  0  0  0  0  0  0  0
   22.7063    8.6765    0.0000 O   0  0  0  0  0  0  0  0  0  0  0  0
    5.9990  -11.3814    0.0000 O   0  0  0  0  0  0  0  0  0  0  0  0
    4.9112  -13.7293    0.0000 O   0  0  0  0  0  0  0  0  0  0  0  0
    7.0868  -13.7293    0.0000 O   0  0  0  0  0  0  0  0  0  0  0  0
   26.4063    7.3759    0.0000 O   0  0  0  0  0  0  0  0  0  0  0  0
   25.0403    7.0099    0.0000 O   0  0  0  0  0  0  0  0  0  0  0  0
    4.0310  -10.6821    0.0000 O   0  0  0  0  0  0  0  0  0  0  0  0
   26.0403    8.7419    0.0000 O   0  0  0  0  0  0  0  0  0  0  0  0
   20.8041    8.0585    0.0000 O   0  0  0  0  0  0  0  0  0  0  0  0
   21.4462    9.3185    0.0000 O   0  0  0  0  0  0  0  0  0  0  0  0
   22.0642    7.4164    0.0000 O   0  0  0  0  0  0  0  0  0  0  0  0
   20.3883    6.1022    0.0000 O   0  0  0  0  0  0  0  0  0  0  0  0
    7.2238  -10.0129    0.0000 O   0  0  0  0  0  0  0  0  0  0  0  0
    9.3068   -7.8998    0.0000 O   0  0  0  0  0  0  0  0  0  0  0  0
   21.5744    6.8724    0.0000 O   0  0  0  0  0  0  0  0  0  0  0  0
   19.7646    3.1677    0.0000 O   0  0  0  0  0  0  0  0  0  0  0  0
    2.1289  -10.0640    0.0000 O   0  0  0  0  0  0  0  0  0  0  0  0
    3.3890   -9.4220    0.0000 O   0  0  0  0  0  0  0  0  0  0  0  0
   19.6181    7.2882    0.0000 O   0  0  0  0  0  0  0  0  0  0  0  0
    2.7709  -11.3241    0.0000 O   0  0  0  0  0  0  0  0  0  0  0  0
   17.3272    4.1970    0.0000 O   0  0  0  0  0  0  0  0  0  0  0  0
   10.3734   -3.5260    0.0000 O   0  0  0  0  0  0  0  0  0  0  0  0
   14.5457   -9.9399    0.0000 O   0  0  0  0  0  0  0  0  0  0  0  0
   15.0093    1.6226    0.0000 O   0  0  0  0  0  0  0  0  0  0  0  0
   13.9697   -3.2681    0.0000 O   0  0  0  0  0  0  0  0  0  0  0  0
   11.2051    0.3866    0.0000 O   0  0  0  0  0  0  0  0  0  0  0  0
   10.0461   -0.9006    0.0000 O   0  0  0  0  0  0  0  0  0  0  0  0
   25.7620   11.7237    0.0000 N   0  0  0  0  0  0  0  0  0  0  0  0
   26.2567   13.2553    0.0000 N   0  0  0  0  0  0  0  0  0  0  0  0
    7.7591  -11.6602    0.0000 N   0  0  0  0  0  0  0  0  0  0  0  0
   27.4265   10.9809    0.0000 N   0  0  0  0  0  0  0  0  0  0  0  0
   28.7117   12.1421    0.0000 N   0  0  0  0  0  0  0  0  0  0  0  0
    9.1260   -9.3949    0.0000 N   0  0  0  0  0  0  0  0  0  0  0  0
   28.3486   13.8357    0.0000 N   0  0  0  0  0  0  0  0  0  0  0  0
   17.8625    2.5497    0.0000 N   0  0  0  0  0  0  0  0  0  0  0  0
   12.0676   -3.8861    0.0000 N   0  0  0  0  0  0  0  0  0  0  0  0
   12.5469  -12.1771    0.0000 N   0  0  0  0  0  0  0  0  0  0  0  0
   14.1921  -11.6355    0.0000 N   0  0  0  0  0  0  0  0  0  0  0  0
   15.5445   -0.0246    0.0000 N   0  0  0  0  0  0  0  0  0  0  0  0
   13.8386  -13.3311    0.0000 N   0  0  0  0  0  0  0  0  0  0  0  0
   24.6742    9.3759    0.0000 C   0  0  3  0  0  0  0  0  0  0  0  0
   25.4833    9.9637    0.0000 C   0  0  3  0  0  0  0  0  0  0  0  0
   23.8652    9.9637    0.0000 C   0  0  3  0  0  0  0  0  0  0  0  0
   25.1742   10.9147    0.0000 C   0  0  3  0  0  0  0  0  0  0  0  0
   22.9142    9.6546    0.0000 C   0  0  0  0  0  0  0  0  0  0  0  0
   26.7561   11.7229    0.0000 C   0  0  0  0  0  0  0  0  0  0  0  0
    5.4990  -12.9203    0.0000 C   0  0  3  0  0  0  0  0  0  0  0  0
    6.4990  -12.9203    0.0000 C   0  0  3  0  0  0  0  0  0  0  0  0
    5.1900  -11.9692    0.0000 C   0  0  3  0  0  0  0  0  0  0  0  0
    6.8080  -11.9692    0.0000 C   0  0  3  0  0  0  0  0  0  0  0  0
   25.4540   12.6689    0.0000 C   0  0  0  0  0  0  0  0  0  0  0  0
   27.0635   12.6745    0.0000 C   0  0  0  0  0  0  0  0  0  0  0  0
    4.2389  -11.6602    0.0000 C   0  0  0  0  0  0  0  0  0  0  0  0
   28.0413   12.8841    0.0000 C   0  0  0  0  0  0  0  0  0  0  0  0
    7.9670  -10.6821    0.0000 C   0  0  0  0  0  0  0  0  0  0  0  0
   28.4043   11.1905    0.0000 C   0  0  0  0  0  0  0  0  0  0  0  0
   19.2293    4.8150    0.0000 C   0  0  0  0  0  0  0  0  0  0  0  0
   10.2849   -8.1077    0.0000 C   0  0  3  0  0  0  0  0  0  0  0  0
    8.9180  -10.3730    0.0000 C   0  0  0  0  0  0  0  0  0  0  0  0
   10.0770   -9.0859    0.0000 C   0  0  0  0  0  0  0  0  0  0  0  0
   19.4373    5.7932    0.0000 C   0  0  0  0  0  0  0  0  0  0  0  0
   11.2631   -8.3156    0.0000 C   0  0  0  0  0  0  0  0  0  0  0  0
   19.0214    3.8369    0.0000 C   0  0  3  0  0  0  0  0  0  0  0  0
   10.4928   -7.1296    0.0000 C   0  0  0  0  0  0  0  0  0  0  0  0
   20.2075    4.6071    0.0000 C   0  0  0  0  0  0  0  0  0  0  0  0
   18.2512    5.0229    0.0000 C   0  0  0  0  0  0  0  0  0  0  0  0
   11.5721   -9.2667    0.0000 C   0  0  0  0  0  0  0  0  0  0  0  0
   18.0704    3.5278    0.0000 C   0  0  0  0  0  0  0  0  0  0  0  0
   11.4439   -6.8206    0.0000 C   0  0  0  0  0  0  0  0  0  0  0  0
    9.7497   -6.4604    0.0000 C   0  0  0  0  0  0  0  0  0  0  0  0
   12.5901   -9.4872    0.0000 C   0  0  0  0  0  0  0  0  0  0  0  0
   10.8781  -10.0435    0.0000 C   0  0  0  0  0  0  0  0  0  0  0  0
   11.6518   -5.8424    0.0000 C   0  0  0  0  0  0  0  0  0  0  0  0
    9.9576   -5.4823    0.0000 C   0  0  0  0  0  0  0  0  0  0  0  0
   10.9087   -5.1733    0.0000 C   0  0  0  0  0  0  0  0  0  0  0  0
   12.9005  -10.4815    0.0000 C   0  0  0  0  0  0  0  0  0  0  0  0
   11.2114  -11.0303    0.0000 C   0  0  0  0  0  0  0  0  0  0  0  0
   12.2343  -11.2272    0.0000 C   0  0  0  0  0  0  0  0  0  0  0  0
   16.9114    2.2407    0.0000 C   0  0  0  0  0  0  0  0  0  0  0  0
   11.1166   -4.1951    0.0000 C   0  0  0  0  0  0  0  0  0  0  0  0
   16.7035    1.2625    0.0000 C   0  0  0  0  0  0  0  0  0  0  0  0
   13.8795  -10.6856    0.0000 C   0  0  0  0  0  0  0  0  0  0  0  0
   12.2755   -2.9080    0.0000 C   0  0  3  0  0  0  0  0  0  0  0  0
   13.5259  -12.3812    0.0000 C   0  0  0  0  0  0  0  0  0  0  0  0
   11.5324   -2.2388    0.0000 C   0  0  0  0  0  0  0  0  0  0  0  0
   15.7524    0.9535    0.0000 C   0  0  0  0  0  0  0  0  0  0  0  0
   13.2266   -2.5990    0.0000 C   0  0  0  0  0  0  0  0  0  0  0  0
   11.7403   -1.2607    0.0000 C   0  0  0  0  0  0  0  0  0  0  0  0
   14.5935   -0.3336    0.0000 C   0  0  0  0  0  0  0  0  0  0  0  0
   14.3856   -1.3118    0.0000 C   0  0  0  0  0  0  0  0  0  0  0  0
   10.9972   -0.5916    0.0000 C   0  0  0  0  0  0  0  0  0  0  0  0
   25.2267    9.0944    0.0000 H   0  0  0  0  0  0  0  0  0  0  0  0
   25.5802    9.3513    0.0000 H   0  0  0  0  0  0  0  0  0  0  0  0
   23.4268   10.4021    0.0000 H   0  0  0  0  0  0  0  0  0  0  0  0
   24.8928   11.4671    0.0000 H   0  0  0  0  0  0  0  0  0  0  0  0
   22.8279   10.2686    0.0000 H   0  0  0  0  0  0  0  0  0  0  0  0
   22.2945    9.6763    0.0000 H   0  0  0  0  0  0  0  0  0  0  0  0
   26.5632    9.0482    0.0000 H   0  0  0  0  0  0  0  0  0  0  0  0
    4.8866  -12.8233    0.0000 H   0  0  0  0  0  0  0  0  0  0  0  0
    7.1114  -12.8233    0.0000 H   0  0  0  0  0  0  0  0  0  0  0  0
    5.0930  -11.3569    0.0000 H   0  0  0  0  0  0  0  0  0  0  0  0
    6.9050  -11.3569    0.0000 H   0  0  0  0  0  0  0  0  0  0  0  0
   24.8640   12.8595    0.0000 H   0  0  0  0  0  0  0  0  0  0  0  0
    3.6193  -11.6818    0.0000 H   0  0  0  0  0  0  0  0  0  0  0  0
    4.1526  -12.2742    0.0000 H   0  0  0  0  0  0  0  0  0  0  0  0
    8.2198  -12.0751    0.0000 H   0  0  0  0  0  0  0  0  0  0  0  0
    4.2946  -13.6645    0.0000 H   0  0  0  0  0  0  0  0  0  0  0  0
    6.8346  -14.2957    0.0000 H   0  0  0  0  0  0  0  0  0  0  0  0
   26.4063    6.7559    0.0000 H   0  0  0  0  0  0  0  0  0  0  0  0
   25.3503    6.4729    0.0000 H   0  0  0  0  0  0  0  0  0  0  0  0
   28.8200   10.7305    0.0000 H   0  0  0  0  0  0  0  0  0  0  0  0
    9.0043  -10.9870    0.0000 H   0  0  0  0  0  0  0  0  0  0  0  0
    9.5377  -10.3947    0.0000 H   0  0  0  0  0  0  0  0  0  0  0  0
   10.1633   -9.6998    0.0000 H   0  0  0  0  0  0  0  0  0  0  0  0
   10.6966   -9.1075    0.0000 H   0  0  0  0  0  0  0  0  0  0  0  0
    8.6652   -8.9800    0.0000 H   0  0  0  0  0  0  0  0  0  0  0  0
   19.3510    6.4071    0.0000 H   0  0  0  0  0  0  0  0  0  0  0  0
   18.8176    5.8148    0.0000 H   0  0  0  0  0  0  0  0  0  0  0  0
   28.9549   13.9656    0.0000 H   0  0  0  0  0  0  0  0  0  0  0  0
   27.9330   14.2957    0.0000 H   0  0  0  0  0  0  0  0  0  0  0  0
   20.8397    9.4474    0.0000 H   0  0  0  0  0  0  0  0  0  0  0  0
   11.8770   -8.2294    0.0000 H   0  0  0  0  0  0  0  0  0  0  0  0
   11.2847   -7.6960    0.0000 H   0  0  0  0  0  0  0  0  0  0  0  0
   18.8925    3.2304    0.0000 H   0  0  0  0  0  0  0  0  0  0  0  0
   20.0786    4.0006    0.0000 H   0  0  0  0  0  0  0  0  0  0  0  0
   20.8139    4.4782    0.0000 H   0  0  0  0  0  0  0  0  0  0  0  0
   20.3364    5.2136    0.0000 H   0  0  0  0  0  0  0  0  0  0  0  0
   18.3801    5.6294    0.0000 H   0  0  0  0  0  0  0  0  0  0  0  0
   17.6448    5.1518    0.0000 H   0  0  0  0  0  0  0  0  0  0  0  0
   18.1223    4.4165    0.0000 H   0  0  0  0  0  0  0  0  0  0  0  0
    9.1152   -7.3102    0.0000 H   0  0  0  0  0  0  0  0  0  0  0  0
   11.9046   -7.2354    0.0000 H   0  0  0  0  0  0  0  0  0  0  0  0
    9.1600   -6.6520    0.0000 H   0  0  0  0  0  0  0  0  0  0  0  0
   13.0085   -9.0297    0.0000 H   0  0  0  0  0  0  0  0  0  0  0  0
   21.7660    6.2828    0.0000 H   0  0  0  0  0  0  0  0  0  0  0  0
   20.3542    3.3593    0.0000 H   0  0  0  0  0  0  0  0  0  0  0  0
   10.2707   -9.9192    0.0000 H   0  0  0  0  0  0  0  0  0  0  0  0
    2.0000   -9.4576    0.0000 H   0  0  0  0  0  0  0  0  0  0  0  0
    3.9954   -9.2931    0.0000 H   0  0  0  0  0  0  0  0  0  0  0  0
   12.2415   -5.6508    0.0000 H   0  0  0  0  0  0  0  0  0  0  0  0
    9.4968   -5.0674    0.0000 H   0  0  0  0  0  0  0  0  0  0  0  0
   18.3232    2.1348    0.0000 H   0  0  0  0  0  0  0  0  0  0  0  0
   10.8037  -11.4974    0.0000 H   0  0  0  0  0  0  0  0  0  0  0  0
   16.8251    2.8546    0.0000 H   0  0  0  0  0  0  0  0  0  0  0  0
   16.2918    2.2623    0.0000 H   0  0  0  0  0  0  0  0  0  0  0  0
   16.7898    0.6486    0.0000 H   0  0  0  0  0  0  0  0  0  0  0  0
   17.3231    1.2409    0.0000 H   0  0  0  0  0  0  0  0  0  0  0  0
   11.6859   -3.0996    0.0000 H   0  0  0  0  0  0  0  0  0  0  0  0
   12.5284   -4.3010    0.0000 H   0  0  0  0  0  0  0  0  0  0  0  0
   14.7991  -11.7621    0.0000 H   0  0  0  0  0  0  0  0  0  0  0  0
   10.9575   -2.0066    0.0000 H   0  0  0  0  0  0  0  0  0  0  0  0
   11.2038   -2.7646    0.0000 H   0  0  0  0  0  0  0  0  0  0  0  0
   16.0053   -0.4395    0.0000 H   0  0  0  0  0  0  0  0  0  0  0  0
   12.3152   -1.4930    0.0000 H   0  0  0  0  0  0  0  0  0  0  0  0
   12.0689   -0.7349    0.0000 H   0  0  0  0  0  0  0  0  0  0  0  0
   14.5072    0.2803    0.0000 H   0  0  0  0  0  0  0  0  0  0  0  0
   13.9739   -0.3120    0.0000 H   0  0  0  0  0  0  0  0  0  0  0  0
   14.4719   -1.9258    0.0000 H   0  0  0  0  0  0  0  0  0  0  0  0
   15.0052   -1.3334    0.0000 H   0  0  0  0  0  0  0  0  0  0  0  0
   13.4255  -13.7934    0.0000 H   0  0  0  0  0  0  0  0  0  0  0  0
   14.4455  -13.4576    0.0000 H   0  0  0  0  0  0  0  0  0  0  0  0
   10.7443    0.8014    0.0000 H   0  0  0  0  0  0  0  0  0  0  0  0
  1 95  1  0  0  0  0
  1 98  1  0  0  0  0
  2  7  1  0  0  0  0
  2 13  1  0  0  0  0
  2 14  1  0  0  0  0
  2 16  2  0  0  0  0
  3  9  1  0  0  0  0
  3 17  1  0  0  0  0
  3 18  1  0  0  0  0
  3 19  2  0  0  0  0
  4 17  1  0  0  0  0
  4 20  1  0  0  0  0
  4 23  1  0  0  0  0
  4 27  2  0  0  0  0
  5 15  1  0  0  0  0
  5 25  1  0  0  0  0
  5 26  1  0  0  0  0
  5 28  2  0  0  0  0
  6 51  1  0  0  0  0
  6 52  1  0  0  0  0
  7 49  1  0  0  0  0
  8 50  1  0  0  0  0
  8106  1  0  0  0  0
  9 53  1  0  0  0  0
 10 57  1  0  0  0  0
 10 58  1  0  0  0  0
 11 55  1  0  0  0  0
 11115  1  0  0  0  0
 12 56  1  0  0  0  0
 12116  1  0  0  0  0
 13117  1  0  0  0  0
 14118  1  0  0  0  0
 15 61  1  0  0  0  0
 18129  1  0  0  0  0
 20 69  1  0  0  0  0
 21 63  2  0  0  0  0
 22 66  1  0  0  0  0
 22139  1  0  0  0  0
 23143  1  0  0  0  0
 24 71  1  0  0  0  0
 24144  1  0  0  0  0
 25146  1  0  0  0  0
 26147  1  0  0  0  0
 29 76  2  0  0  0  0
 30 88  2  0  0  0  0
 31 90  2  0  0  0  0
 32 94  2  0  0  0  0
 33 95  2  0  0  0  0
 34 99  1  0  0  0  0
 34170  1  0  0  0  0
 35 99  2  0  0  0  0
 36 52  1  0  0  0  0
 36 54  1  0  0  0  0
 36 59  1  0  0  0  0
 37 59  2  0  0  0  0
 37 60  1  0  0  0  0
 38 58  1  0  0  0  0
 38 63  1  0  0  0  0
 38114  1  0  0  0  0
 39 54  2  0  0  0  0
 39 64  1  0  0  0  0
 40 62  1  0  0  0  0
 40 64  2  0  0  0  0
 41 67  1  0  0  0  0
 41 68  1  0  0  0  0
 41124  1  0  0  0  0
 42 62  1  0  0  0  0
 42127  1  0  0  0  0
 42128  1  0  0  0  0
 43 76  1  0  0  0  0
 43 87  1  0  0  0  0
 43150  1  0  0  0  0
 44 88  1  0  0  0  0
 44 91  1  0  0  0  0
 44157  1  0  0  0  0
 45 86  1  0  0  0  0
 45 92  2  0  0  0  0
 46 90  1  0  0  0  0
 46 92  1  0  0  0  0
 46158  1  0  0  0  0
 47 94  1  0  0  0  0
 47 97  1  0  0  0  0
 47161  1  0  0  0  0
 48 92  1  0  0  0  0
 48168  1  0  0  0  0
 48169  1  0  0  0  0
 49 50  1  0  0  0  0
 49 51  1  0  0  0  0
 49100  1  0  0  0  0
 50 52  1  0  0  0  0
 50101  1  0  0  0  0
 51 53  1  0  0  0  0
 51102  1  0  0  0  0
 52103  1  0  0  0  0
 53104  1  0  0  0  0
 53105  1  0  0  0  0
 54 60  1  0  0  0  0
 55 56  1  0  0  0  0
 55 57  1  0  0  0  0
 55107  1  0  0  0  0
 56 58  1  0  0  0  0
 56108  1  0  0  0  0
 57 61  1  0  0  0  0
 57109  1  0  0  0  0
 58110  1  0  0  0  0
 59111  1  0  0  0  0
 60 62  2  0  0  0  0
 61112  1  0  0  0  0
 61113  1  0  0  0  0
 63 67  1  0  0  0  0
 64119  1  0  0  0  0
 65 69  1  0  0  0  0
 65 71  1  0  0  0  0
 65 73  1  0  0  0  0
 65 74  1  0  0  0  0
 66 68  1  0  0  0  0
 66 70  1  0  0  0  0
 66 72  1  0  0  0  0
 67120  1  0  0  0  0
 67121  1  0  0  0  0
 68122  1  0  0  0  0
 68123  1  0  0  0  0
 69125  1  0  0  0  0
 69126  1  0  0  0  0
 70 75  1  0  0  0  0
 70130  1  0  0  0  0
 70131  1  0  0  0  0
 71 76  1  0  0  0  0
 71132  1  0  0  0  0
 72 77  2  0  0  0  0
 72 78  1  0  0  0  0
 73133  1  0  0  0  0
 73134  1  0  0  0  0
 73135  1  0  0  0  0
 74136  1  0  0  0  0
 74137  1  0  0  0  0
 74138  1  0  0  0  0
 75 79  2  0  0  0  0
 75 80  1  0  0  0  0
 77 81  1  0  0  0  0
 77140  1  0  0  0  0
 78 82  2  0  0  0  0
 78141  1  0  0  0  0
 79 84  1  0  0  0  0
 79142  1  0  0  0  0
 80 85  2  0  0  0  0
 80145  1  0  0  0  0
 81 83  2  0  0  0  0
 81148  1  0  0  0  0
 82 83  1  0  0  0  0
 82149  1  0  0  0  0
 83 88  1  0  0  0  0
 84 86  2  0  0  0  0
 84 90  1  0  0  0  0
 85 86  1  0  0  0  0
 85151  1  0  0  0  0
 87 89  1  0  0  0  0
 87152  1  0  0  0  0
 87153  1  0  0  0  0
 89 94  1  0  0  0  0
 89154  1  0  0  0  0
 89155  1  0  0  0  0
 91 93  1  0  0  0  0
 91 95  1  0  0  0  0
 91156  1  0  0  0  0
 93 96  1  0  0  0  0
 93159  1  0  0  0  0
 93160  1  0  0  0  0
 96 99  1  0  0  0  0
 96162  1  0  0  0  0
 96163  1  0  0  0  0
 97 98  1  0  0  0  0
 97164  1  0  0  0  0
 97165  1  0  0  0  0
 98166  1  0  0  0  0
 98167  1  0  0  0  0
M  END
> <PUBCHEM_COMPOUND_CID>
155488773

> <PUBCHEM_COMPOUND_CANONICALIZED>
1

> <PUBCHEM_CACTVS_COMPLEXITY>
3080

> <PUBCHEM_CACTVS_HBOND_ACCEPTOR>
37

> <PUBCHEM_CACTVS_HBOND_DONOR>
20

> <PUBCHEM_CACTVS_ROTATABLE_BOND>
37

> <PUBCHEM_CACTVS_SUBSKEYS>
AAADcfB//gPAAAAAAAAAAAAAAAAAAWJEgAA8YIEAAAAAAFiB/AAAHgQQCCAADnzl3wa3+L/MFxioQyfzfIKCgC01ErAJ2KHofNmLfjrg3fGedYhv1wP72ef+/vKPyAACAAACAACQAAQAAAQAAAAAAAAAAA==

> <PUBCHEM_IUPAC_OPENEYE_NAME>
4-[[4-[1-[(2-amino-4-oxo-3H-quinazolin-6-yl)methyl]-2-[[2-[[3,4-dihydroxy-5-(phosphonooxymethyl)tetrahydrofuran-2-yl]amino]-2-oxo-ethyl]amino]-1-hydroxy-ethyl]benzoyl]amino]-5-[2-[3-[[4-[[[5-(6-aminopurin-9-yl)-4-hydroxy-3-phosphonooxy-tetrahydrofuran-2-yl]methoxy-hydroxy-phosphoryl]oxy-hydroxy-phosphoryl]oxy-2-hydroxy-3,3-dimethyl-butanoyl]amino]propanoylamino]ethylsulfanyl]-5-oxo-pentanoic acid

> <PUBCHEM_IUPAC_CAS_NAME>
4-[[[4-[1-(2-amino-4-oxo-3H-quinazolin-6-yl)-3-[[2-[[3,4-dihydroxy-5-(phosphonooxymethyl)-2-oxolanyl]amino]-2-oxoethyl]amino]-2-hydroxypropan-2-yl]phenyl]-oxomethyl]amino]-5-[2-[[3-[[4-[[[5-(6-aminopurin-9-yl)-4-hydroxy-3-phosphonooxy-2-oxolanyl]methoxy-hydroxyphosphoryl]oxy-hydroxyphosphoryl]oxy-2-hydroxy-3,3-dimethyl-1-oxobutyl]amino]-1-oxopropyl]amino]ethylthio]-5-oxopentanoic acid

> <PUBCHEM_IUPAC_NAME_MARKUP>
4-[[4-[1-(2-amino-4-oxo-3<I>H</I>-quinazolin-6-yl)-3-[[2-[[3,4-dihydroxy-5-(phosphonooxymethyl)oxolan-2-yl]amino]-2-oxoethyl]amino]-2-hydroxypropan-2-yl]benzoyl]amino]-5-[2-[3-[[4-[[[5-(6-aminopurin-9-yl)-4-hydroxy-3-phosphonooxyoxolan-2-yl]methoxy-hydroxyphosphoryl]oxy-hydroxyphosphoryl]oxy-2-hydroxy-3,3-dimethylbutanoyl]amino]propanoylamino]ethylsulfanyl]-5-oxopentanoic acid

> <PUBCHEM_IUPAC_NAME>
4-[[4-[1-(2-amino-4-oxo-3H-quinazolin-6-yl)-3-[[2-[[3,4-dihydroxy-5-(phosphonooxymethyl)oxolan-2-yl]amino]-2-oxoethyl]amino]-2-hydroxypropan-2-yl]benzoyl]amino]-5-[2-[3-[[4-[[[5-(6-aminopurin-9-yl)-4-hydroxy-3-phosphonooxyoxolan-2-yl]methoxy-hydroxyphosphoryl]oxy-hydroxyphosphoryl]oxy-2-hydroxy-3,3-dimethylbutanoyl]amino]propanoylamino]ethylsulfanyl]-5-oxopentanoic acid

> <PUBCHEM_IUPAC_SYSTEMATIC_NAME>
5-[2-[3-[[4-[[[5-(6-aminopurin-9-yl)-4-oxidanyl-3-phosphonooxy-oxolan-2-yl]methoxy-oxidanyl-phosphoryl]oxy-oxidanyl-phosphoryl]oxy-3,3-dimethyl-2-oxidanyl-butanoyl]amino]propanoylamino]ethylsulfanyl]-4-[[4-[1-(2-azanyl-4-oxidanylidene-3H-quinazolin-6-yl)-3-[[2-[[3,4-bis(oxidanyl)-5-(phosphonooxymethyl)oxolan-2-yl]amino]-2-oxidanylidene-ethyl]amino]-2-oxidanyl-propan-2-yl]phenyl]carbonylamino]-5-oxidanylidene-pentanoic acid

> <PUBCHEM_IUPAC_TRADITIONAL_NAME>
5-[2-[3-[[4-[[(5-adenin-9-yl-4-hydroxy-3-phosphonooxy-tetrahydrofuran-2-yl)methoxy-hydroxy-phosphoryl]oxy-hydroxy-phosphoryl]oxy-2-hydroxy-3,3-dimethyl-butanoyl]amino]propanoylamino]ethylthio]-4-[[4-[1-[(2-amino-4-keto-3H-quinazolin-6-yl)methyl]-2-[[2-[[3,4-dihydroxy-5-(phosphonooxymethyl)tetrahydrofuran-2-yl]amino]-2-keto-ethyl]amino]-1-hydroxy-ethyl]benzoyl]amino]-5-keto-valeric acid

> <PUBCHEM_IUPAC_INCHI>
InChI=1S/C51H71N13O30P4S/c1-50(2,21-90-98(86,87)94-97(84,85)89-19-31-39(93-96(81,82)83)38(71)47(92-31)64-23-59-35-41(52)57-22-58-42(35)64)40(72)45(75)56-12-11-32(65)55-13-14-99-48(76)29(9-10-34(67)68)60-43(73)25-4-6-26(7-5-25)51(77,16-24-3-8-28-27(15-24)44(74)63-49(53)61-28)20-54-17-33(66)62-46-37(70)36(69)30(91-46)18-88-95(78,79)80/h3-8,15,22-23,29-31,36-40,46-47,54,69-72,77H,9-14,16-21H2,1-2H3,(H,55,65)(H,56,75)(H,60,73)(H,62,66)(H,67,68)(H,84,85)(H,86,87)(H2,52,57,58)(H2,78,79,80)(H2,81,82,83)(H3,53,61,63,74)

> <PUBCHEM_IUPAC_INCHIKEY>
BJRRNAZDZDACPX-UHFFFAOYSA-N

> <PUBCHEM_XLOGP3_AA>
-12.1

> <PUBCHEM_EXACT_MASS>
1501.3100971

> <PUBCHEM_MOLECULAR_FORMULA>
C51H71N13O30P4S

> <PUBCHEM_MOLECULAR_WEIGHT>
1502.1

> <PUBCHEM_OPENEYE_CAN_SMILES>
CC(C)(COP(=O)(O)OP(=O)(O)OCC1C(C(C(O1)N2C=NC3=C(N=CN=C32)N)O)OP(=O)(O)O)C(C(=O)NCCC(=O)NCCSC(=O)C(CCC(=O)O)NC(=O)C4=CC=C(C=C4)C(CC5=CC6=C(C=C5)N=C(NC6=O)N)(CNCC(=O)NC7C(C(C(O7)COP(=O)(O)O)O)O)O)O

> <PUBCHEM_OPENEYE_ISO_SMILES>
CC(C)(COP(=O)(O)OP(=O)(O)OCC1C(C(C(O1)N2C=NC3=C(N=CN=C32)N)O)OP(=O)(O)O)C(C(=O)NCCC(=O)NCCSC(=O)C(CCC(=O)O)NC(=O)C4=CC=C(C=C4)C(CC5=CC6=C(C=C5)N=C(NC6=O)N)(CNCC(=O)NC7C(C(C(O7)COP(=O)(O)O)O)O)O)O

> <PUBCHEM_CACTVS_TPSA>
701

> <PUBCHEM_MONOISOTOPIC_WEIGHT>
1501.3100971

> <PUBCHEM_TOTAL_CHARGE>
0

> <PUBCHEM_HEAVY_ATOM_COUNT>
99

> <PUBCHEM_ATOM_DEF_STEREO_COUNT>
0

> <PUBCHEM_ATOM_UDEF_STEREO_COUNT>
11

> <PUBCHEM_BOND_DEF_STEREO_COUNT>
0

> <PUBCHEM_BOND_UDEF_STEREO_COUNT>
0

> <PUBCHEM_ISOTOPIC_ATOM_COUNT>
0

> <PUBCHEM_COMPONENT_COUNT>
1

> <PUBCHEM_CACTVS_TAUTO_COUNT>
-1

> <PUBCHEM_COORDINATE_TYPE>
1
5
255

> <PUBCHEM_BONDANNOTATIONS>
55  11  3
56  12  3
66  22  3
71  24  3
52  36  3
36  54  8
36  59  8
37  59  8
37  60  8
58  38  3
39  54  8
39  64  8
40  62  8
40  64  8
45  86  8
45  92  8
46  90  8
46  92  8
51  53  3
54  60  8
57  61  3
60  62  8
49  7  3
72  77  8
72  78  8
75  79  8
75  80  8
77  81  8
78  82  8
79  84  8
50  8  3
80  85  8
81  83  8
82  83  8
84  86  8
84  90  8
85  86  8
91  93  3

$$$$
155488806
  -OEChem-03012215082D

129132  0     1  0  0  0  0  0999 V2000
   21.4481    0.7186    0.0000 S   0  0  0  0  0  0  0  0  0  0  0  0
    5.3548    1.1202    0.0000 P   0  0  0  0  0  0  0  0  0  0  0  0
    8.4752   -0.1196    0.0000 P   0  0  3  0  0  0  0  0  0  0  0  0
   10.1980    0.0585    0.0000 P   0  0  3  0  0  0  0  0  0  0  0  0
   27.2211    3.8286    0.0000 P   0  0  0  0  0  0  0  0  0  0  0  0
    5.9405   -1.8840    0.0000 O   0  0  0  0  0  0  0  0  0  0  0  0
    4.6844    0.3782    0.0000 O   0  0  0  0  0  0  0  0  0  0  0  0
    3.4026   -1.3796    0.0000 O   0  0  0  0  0  0  0  0  0  0  0  0
    7.6651   -0.7059    0.0000 O   0  0  0  0  0  0  0  0  0  0  0  0
    6.0252    1.8622    0.0000 O   0  0  0  0  0  0  0  0  0  0  0  0
    4.6128    1.7906    0.0000 O   0  0  0  0  0  0  0  0  0  0  0  0
    9.2852    0.4668    0.0000 O   0  0  0  0  0  0  0  0  0  0  0  0
    6.0968    0.4498    0.0000 O   0  0  0  0  0  0  0  0  0  0  0  0
    9.0615   -0.9296    0.0000 O   0  0  0  0  0  0  0  0  0  0  0  0
   11.1109   -0.3498    0.0000 O   0  0  0  0  0  0  0  0  0  0  0  0
    7.8888    0.6905    0.0000 O   0  0  0  0  0  0  0  0  0  0  0  0
   13.8494   -1.5748    0.0000 O   0  0  0  0  0  0  0  0  0  0  0  0
   10.6063    0.9713    0.0000 O   0  0  0  0  0  0  0  0  0  0  0  0
    9.7897   -0.8543    0.0000 O   0  0  0  0  0  0  0  0  0  0  0  0
   14.4538    1.0010    0.0000 O   0  0  0  0  0  0  0  0  0  0  0  0
   17.8996    1.3572    0.0000 O   0  0  0  0  0  0  0  0  0  0  0  0
   27.3240    2.8339    0.0000 O   0  0  0  0  0  0  0  0  0  0  0  0
   25.0995   -0.9147    0.0000 O   0  0  0  0  0  0  0  0  0  0  0  0
   22.4638   -0.6844    0.0000 O   0  0  0  0  0  0  0  0  0  0  0  0
   23.7754    3.4724    0.0000 O   0  0  0  0  0  0  0  0  0  0  0  0
   28.2159    3.9314    0.0000 O   0  0  0  0  0  0  0  0  0  0  0  0
   27.1183    4.8233    0.0000 O   0  0  0  0  0  0  0  0  0  0  0  0
   26.2264    3.7258    0.0000 O   0  0  0  0  0  0  0  0  0  0  0  0
    4.6783   -3.1419    0.0000 N   0  0  0  0  0  0  0  0  0  0  0  0
    4.6783   -4.7514    0.0000 N   0  0  0  0  0  0  0  0  0  0  0  0
    2.8660   -2.9466    0.0000 N   0  0  0  0  0  0  0  0  0  0  0  0
    2.0000   -4.4466    0.0000 N   0  0  0  0  0  0  0  0  0  0  0  0
    2.8660   -5.9466    0.0000 N   0  0  0  0  0  0  0  0  0  0  0  0
   15.4695   -0.4020    0.0000 N   0  0  0  0  0  0  0  0  0  0  0  0
   18.9152   -0.0459    0.0000 N   0  0  0  0  0  0  0  0  0  0  0  0
   24.0838    0.4883    0.0000 N   0  0  0  0  0  0  0  0  0  0  0  0
   27.6324   -0.1502    0.0000 N   0  0  0  0  0  0  0  0  0  0  0  0
   25.2927    5.6399    0.0000 N   0  0  0  0  0  0  0  0  0  0  0  0
    4.9917   -0.5734    0.0000 C   0  0  3  0  0  0  0  0  0  0  0  0
    4.4026   -1.3814    0.0000 C   0  0  3  0  0  0  0  0  0  0  0  0
    5.9422   -0.8840    0.0000 C   0  0  3  0  0  0  0  0  0  0  0  0
    4.9889   -2.1914    0.0000 C   0  0  3  0  0  0  0  0  0  0  0  0
    6.7523   -0.2976    0.0000 C   0  0  0  0  0  0  0  0  0  0  0  0
    3.7320   -3.4466    0.0000 C   0  0  0  0  0  0  0  0  0  0  0  0
    5.2619   -3.9466    0.0000 C   0  0  0  0  0  0  0  0  0  0  0  0
    3.7320   -4.4466    0.0000 C   0  0  0  0  0  0  0  0  0  0  0  0
    2.8660   -4.9466    0.0000 C   0  0  0  0  0  0  0  0  0  0  0  0
   12.8337   -0.1717    0.0000 C   0  0  0  0  0  0  0  0  0  0  0  0
   11.9209    0.2366    0.0000 C   0  0  0  0  0  0  0  0  0  0  0  0
   13.7466   -0.5801    0.0000 C   0  0  3  0  0  0  0  0  0  0  0  0
    2.0000   -3.4466    0.0000 C   0  0  0  0  0  0  0  0  0  0  0  0
   13.2421    0.7411    0.0000 C   0  0  0  0  0  0  0  0  0  0  0  0
   12.4254   -1.0846    0.0000 C   0  0  0  0  0  0  0  0  0  0  0  0
   14.5566    0.0063    0.0000 C   0  0  0  0  0  0  0  0  0  0  0  0
   16.2795    0.1844    0.0000 C   0  0  0  0  0  0  0  0  0  0  0  0
   17.1923   -0.2239    0.0000 C   0  0  0  0  0  0  0  0  0  0  0  0
   18.0024    0.3625    0.0000 C   0  0  0  0  0  0  0  0  0  0  0  0
   19.7252    0.5405    0.0000 C   0  0  0  0  0  0  0  0  0  0  0  0
   20.6381    0.1322    0.0000 C   0  0  0  0  0  0  0  0  0  0  0  0
   23.1710    0.8967    0.0000 C   0  0  3  0  0  0  0  0  0  0  0  0
   24.8939    1.0747    0.0000 C   0  0  0  0  0  0  0  0  0  0  0  0
   25.8067    0.6664    0.0000 C   0  0  0  0  0  0  0  0  0  0  0  0
   26.6167    1.2528    0.0000 C   0  0  0  0  0  0  0  0  0  0  0  0
   22.3610    0.3103    0.0000 C   0  0  0  0  0  0  0  0  0  0  0  0
   25.9095   -0.3283    0.0000 C   0  0  0  0  0  0  0  0  0  0  0  0
   26.5139    2.2475    0.0000 C   0  0  0  0  0  0  0  0  0  0  0  0
   23.0682    1.8914    0.0000 C   0  0  0  0  0  0  0  0  0  0  0  0
   26.8223   -0.7366    0.0000 C   0  0  0  0  0  0  0  0  0  0  0  0
   27.5296    0.8445    0.0000 C   0  0  0  0  0  0  0  0  0  0  0  0
   26.9252   -1.7313    0.0000 C   0  0  0  0  0  0  0  0  0  0  0  0
   23.8782    2.4778    0.0000 C   0  0  0  0  0  0  0  0  0  0  0  0
   24.5854    4.0588    0.0000 C   0  0  0  0  0  0  0  0  0  0  0  0
   24.4826    5.0535    0.0000 C   0  0  0  0  0  0  0  0  0  0  0  0
    5.4309   -0.1357    0.0000 H   0  0  0  0  0  0  0  0  0  0  0  0
    4.1220   -0.8284    0.0000 H   0  0  0  0  0  0  0  0  0  0  0  0
    6.4942   -1.1664    0.0000 H   0  0  0  0  0  0  0  0  0  0  0  0
    5.4266   -2.6306    0.0000 H   0  0  0  0  0  0  0  0  0  0  0  0
    7.0999    0.2158    0.0000 H   0  0  0  0  0  0  0  0  0  0  0  0
    6.3070    0.1338    0.0000 H   0  0  0  0  0  0  0  0  0  0  0  0
    3.0935   -0.8421    0.0000 H   0  0  0  0  0  0  0  0  0  0  0  0
    5.8819   -3.9466    0.0000 H   0  0  0  0  0  0  0  0  0  0  0  0
   13.2444   -0.9436    0.0000 H   0  0  0  0  0  0  0  0  0  0  0  0
   12.2685    0.7500    0.0000 H   0  0  0  0  0  0  0  0  0  0  0  0
   11.4757    0.6680    0.0000 H   0  0  0  0  0  0  0  0  0  0  0  0
    5.8346    2.4522    0.0000 H   0  0  0  0  0  0  0  0  0  0  0  0
    4.0228    1.6001    0.0000 H   0  0  0  0  0  0  0  0  0  0  0  0
    1.4631   -3.1366    0.0000 H   0  0  0  0  0  0  0  0  0  0  0  0
   13.8080    0.4879    0.0000 H   0  0  0  0  0  0  0  0  0  0  0  0
   13.4952    1.3071    0.0000 H   0  0  0  0  0  0  0  0  0  0  0  0
   12.6761    0.9943    0.0000 H   0  0  0  0  0  0  0  0  0  0  0  0
   11.8595   -0.8314    0.0000 H   0  0  0  0  0  0  0  0  0  0  0  0
   12.1723   -1.6505    0.0000 H   0  0  0  0  0  0  0  0  0  0  0  0
   12.9914   -1.3377    0.0000 H   0  0  0  0  0  0  0  0  0  0  0  0
    8.8084   -1.4956    0.0000 H   0  0  0  0  0  0  0  0  0  0  0  0
    2.3291   -6.2566    0.0000 H   0  0  0  0  0  0  0  0  0  0  0  0
    3.4030   -6.2566    0.0000 H   0  0  0  0  0  0  0  0  0  0  0  0
   14.4154   -1.8279    0.0000 H   0  0  0  0  0  0  0  0  0  0  0  0
   15.5332   -1.0187    0.0000 H   0  0  0  0  0  0  0  0  0  0  0  0
   10.2428    1.4736    0.0000 H   0  0  0  0  0  0  0  0  0  0  0  0
   16.6271    0.6978    0.0000 H   0  0  0  0  0  0  0  0  0  0  0  0
   15.8342    0.6159    0.0000 H   0  0  0  0  0  0  0  0  0  0  0  0
   16.8447   -0.7373    0.0000 H   0  0  0  0  0  0  0  0  0  0  0  0
   17.6376   -0.6554    0.0000 H   0  0  0  0  0  0  0  0  0  0  0  0
   18.9789   -0.6626    0.0000 H   0  0  0  0  0  0  0  0  0  0  0  0
   20.0728    1.0539    0.0000 H   0  0  0  0  0  0  0  0  0  0  0  0
   19.2800    0.9720    0.0000 H   0  0  0  0  0  0  0  0  0  0  0  0
   20.2905   -0.3812    0.0000 H   0  0  0  0  0  0  0  0  0  0  0  0
   21.0833   -0.2992    0.0000 H   0  0  0  0  0  0  0  0  0  0  0  0
   23.2347    0.2799    0.0000 H   0  0  0  0  0  0  0  0  0  0  0  0
   25.2414    1.5881    0.0000 H   0  0  0  0  0  0  0  0  0  0  0  0
   24.4486    1.5062    0.0000 H   0  0  0  0  0  0  0  0  0  0  0  0
   24.1476   -0.1284    0.0000 H   0  0  0  0  0  0  0  0  0  0  0  0
   26.2431    2.8052    0.0000 H   0  0  0  0  0  0  0  0  0  0  0  0
   25.9176    2.0776    0.0000 H   0  0  0  0  0  0  0  0  0  0  0  0
   22.5022    2.1445    0.0000 H   0  0  0  0  0  0  0  0  0  0  0  0
   28.0318    1.2080    0.0000 H   0  0  0  0  0  0  0  0  0  0  0  0
   26.3084   -1.7950    0.0000 H   0  0  0  0  0  0  0  0  0  0  0  0
   26.9889   -2.3480    0.0000 H   0  0  0  0  0  0  0  0  0  0  0  0
   27.5419   -1.6676    0.0000 H   0  0  0  0  0  0  0  0  0  0  0  0
   24.4442    2.2246    0.0000 H   0  0  0  0  0  0  0  0  0  0  0  0
   25.1632   -1.5314    0.0000 H   0  0  0  0  0  0  0  0  0  0  0  0
   24.8563    3.5011    0.0000 H   0  0  0  0  0  0  0  0  0  0  0  0
   25.1817    4.2287    0.0000 H   0  0  0  0  0  0  0  0  0  0  0  0
   24.2118    5.6113    0.0000 H   0  0  0  0  0  0  0  0  0  0  0  0
   23.8864    4.8837    0.0000 H   0  0  0  0  0  0  0  0  0  0  0  0
   28.4690    4.4974    0.0000 H   0  0  0  0  0  0  0  0  0  0  0  0
   27.6206    5.1868    0.0000 H   0  0  0  0  0  0  0  0  0  0  0  0
   25.2289    6.2566    0.0000 H   0  0  0  0  0  0  0  0  0  0  0  0
   25.8586    5.3868    0.0000 H   0  0  0  0  0  0  0  0  0  0  0  0
  1 59  1  0  0  0  0
  1 64  1  0  0  0  0
  2  7  1  0  0  0  0
  2 10  1  0  0  0  0
  2 11  1  0  0  0  0
  2 13  2  0  0  0  0
  3  9  1  0  0  0  0
  3 12  1  0  0  0  0
  3 14  1  0  0  0  0
  3 16  2  0  0  0  0
  4 12  1  0  0  0  0
  4 15  1  0  0  0  0
  4 18  1  0  0  0  0
  4 19  2  0  0  0  0
  5 22  1  0  0  0  0
  5 26  1  0  0  0  0
  5 27  1  0  0  0  0
  5 28  2  0  0  0  0
  6 41  1  0  0  0  0
  6 42  1  0  0  0  0
  7 39  1  0  0  0  0
  8 40  1  0  0  0  0
  8 80  1  0  0  0  0
  9 43  1  0  0  0  0
 10 85  1  0  0  0  0
 11 86  1  0  0  0  0
 14 94  1  0  0  0  0
 15 49  1  0  0  0  0
 17 50  1  0  0  0  0
 17 97  1  0  0  0  0
 18 99  1  0  0  0  0
 20 54  2  0  0  0  0
 21 57  2  0  0  0  0
 22 66  1  0  0  0  0
 23 65  1  0  0  0  0
 23121  1  0  0  0  0
 24 64  2  0  0  0  0
 25 71  1  0  0  0  0
 25 72  1  0  0  0  0
 26126  1  0  0  0  0
 27127  1  0  0  0  0
 29 42  1  0  0  0  0
 29 44  1  0  0  0  0
 29 45  1  0  0  0  0
 30 45  2  0  0  0  0
 30 46  1  0  0  0  0
 31 44  2  0  0  0  0
 31 51  1  0  0  0  0
 32 47  1  0  0  0  0
 32 51  2  0  0  0  0
 33 47  1  0  0  0  0
 33 95  1  0  0  0  0
 33 96  1  0  0  0  0
 34 54  1  0  0  0  0
 34 55  1  0  0  0  0
 34 98  1  0  0  0  0
 35 57  1  0  0  0  0
 35 58  1  0  0  0  0
 35104  1  0  0  0  0
 36 60  1  0  0  0  0
 36 61  1  0  0  0  0
 36112  1  0  0  0  0
 37 68  2  0  0  0  0
 37 69  1  0  0  0  0
 38 73  1  0  0  0  0
 38128  1  0  0  0  0
 38129  1  0  0  0  0
 39 40  1  0  0  0  0
 39 41  1  0  0  0  0
 39 74  1  0  0  0  0
 40 42  1  0  0  0  0
 40 75  1  0  0  0  0
 41 43  1  0  0  0  0
 41 76  1  0  0  0  0
 42 77  1  0  0  0  0
 43 78  1  0  0  0  0
 43 79  1  0  0  0  0
 44 46  1  0  0  0  0
 45 81  1  0  0  0  0
 46 47  2  0  0  0  0
 48 49  1  0  0  0  0
 48 50  1  0  0  0  0
 48 52  1  0  0  0  0
 48 53  1  0  0  0  0
 49 83  1  0  0  0  0
 49 84  1  0  0  0  0
 50 54  1  0  0  0  0
 50 82  1  0  0  0  0
 51 87  1  0  0  0  0
 52 88  1  0  0  0  0
 52 89  1  0  0  0  0
 52 90  1  0  0  0  0
 53 91  1  0  0  0  0
 53 92  1  0  0  0  0
 53 93  1  0  0  0  0
 55 56  1  0  0  0  0
 55100  1  0  0  0  0
 55101  1  0  0  0  0
 56 57  1  0  0  0  0
 56102  1  0  0  0  0
 56103  1  0  0  0  0
 58 59  1  0  0  0  0
 58105  1  0  0  0  0
 58106  1  0  0  0  0
 59107  1  0  0  0  0
 59108  1  0  0  0  0
 60 64  1  0  0  0  0
 60 67  1  0  0  0  0
 60109  1  0  0  0  0
 61 62  1  0  0  0  0
 61110  1  0  0  0  0
 61111  1  0  0  0  0
 62 63  1  0  0  0  0
 62 65  2  0  0  0  0
 63 66  1  0  0  0  0
 63 69  2  0  0  0  0
 65 68  1  0  0  0  0
 66113  1  0  0  0  0
 66114  1  0  0  0  0
 67 71  2  0  0  0  0
 67115  1  0  0  0  0
 68 70  1  0  0  0  0
 69116  1  0  0  0  0
 70117  1  0  0  0  0
 70118  1  0  0  0  0
 70119  1  0  0  0  0
 71120  1  0  0  0  0
 72 73  1  0  0  0  0
 72122  1  0  0  0  0
 72123  1  0  0  0  0
 73124  1  0  0  0  0
 73125  1  0  0  0  0
M  END
> <PUBCHEM_COMPOUND_CID>
155488806

> <PUBCHEM_COMPOUND_CANONICALIZED>
1

> <PUBCHEM_CACTVS_COMPLEXITY>
2050

> <PUBCHEM_CACTVS_HBOND_ACCEPTOR>
31

> <PUBCHEM_CACTVS_HBOND_DONOR>
14

> <PUBCHEM_CACTVS_ROTATABLE_BOND>
31

> <PUBCHEM_CACTVS_SUBSKEYS>
AAADcfB//gPAAAAAAAAAAAAAAAAAAWJAAAAsWAAAAAAAAFgB/gAAHgQQCCAADjzl3wav9r/MFxioQzd3dIaCiC0xcLAJ2KH9XJiLfnry2fOfdAhv1hP72CfycAMPgAAAAAAAAAAAAAAAAAAAAAAAAAAAAA==

> <PUBCHEM_IUPAC_OPENEYE_NAME>
S-[2-[3-[[4-[[[5-(6-aminopurin-9-yl)-4-hydroxy-3-phosphonooxy-tetrahydrofuran-2-yl]methoxy-hydroxy-phosphoryl]oxy-hydroxy-phosphoryl]oxy-2-hydroxy-3,3-dimethyl-butanoyl]amino]propanoylamino]ethyl] (E)-4-(2-aminoethoxy)-2-[[3-hydroxy-2-methyl-5-(phosphonooxymethyl)-4-pyridyl]methylamino]but-3-enethioate

> <PUBCHEM_IUPAC_CAS_NAME>
(E)-4-(2-aminoethoxy)-2-[[3-hydroxy-2-methyl-5-(phosphonooxymethyl)-4-pyridinyl]methylamino]-3-butenethioic acid S-[2-[[3-[[4-[[[5-(6-aminopurin-9-yl)-4-hydroxy-3-phosphonooxy-2-oxolanyl]methoxy-hydroxyphosphoryl]oxy-hydroxyphosphoryl]oxy-2-hydroxy-3,3-dimethyl-1-oxobutyl]amino]-1-oxopropyl]amino]ethyl] ester

> <PUBCHEM_IUPAC_NAME_MARKUP>
<I>S</I>-[2-[3-[[4-[[[5-(6-aminopurin-9-yl)-4-hydroxy-3-phosphonooxyoxolan-2-yl]methoxy-hydroxyphosphoryl]oxy-hydroxyphosphoryl]oxy-2-hydroxy-3,3-dimethylbutanoyl]amino]propanoylamino]ethyl] (<I>E</I>)-4-(2-aminoethoxy)-2-[[3-hydroxy-2-methyl-5-(phosphonooxymethyl)pyridin-4-yl]methylamino]but-3-enethioate

> <PUBCHEM_IUPAC_NAME>
S-[2-[3-[[4-[[[5-(6-aminopurin-9-yl)-4-hydroxy-3-phosphonooxyoxolan-2-yl]methoxy-hydroxyphosphoryl]oxy-hydroxyphosphoryl]oxy-2-hydroxy-3,3-dimethylbutanoyl]amino]propanoylamino]ethyl] (E)-4-(2-aminoethoxy)-2-[[3-hydroxy-2-methyl-5-(phosphonooxymethyl)pyridin-4-yl]methylamino]but-3-enethioate

> <PUBCHEM_IUPAC_SYSTEMATIC_NAME>
S-[2-[3-[[4-[[[5-(6-aminopurin-9-yl)-4-oxidanyl-3-phosphonooxy-oxolan-2-yl]methoxy-oxidanyl-phosphoryl]oxy-oxidanyl-phosphoryl]oxy-3,3-dimethyl-2-oxidanyl-butanoyl]amino]propanoylamino]ethyl] (E)-4-(2-azanylethoxy)-2-[[2-methyl-3-oxidanyl-5-(phosphonooxymethyl)pyridin-4-yl]methylamino]but-3-enethioate

> <PUBCHEM_IUPAC_TRADITIONAL_NAME>
(E)-4-(2-aminoethoxy)-2-[[3-hydroxy-2-methyl-5-(phosphonooxymethyl)-4-pyridyl]methylamino]but-3-enethioic acid S-[2-[3-[[4-[[(5-adenin-9-yl-4-hydroxy-3-phosphonooxy-tetrahydrofuran-2-yl)methoxy-hydroxy-phosphoryl]oxy-hydroxy-phosphoryl]oxy-2-hydroxy-3,3-dimethyl-butanoyl]amino]propanoylamino]ethyl] ester

> <PUBCHEM_IUPAC_INCHI>
InChI=1S/C35H56N10O23P4S/c1-19-26(47)21(20(12-40-19)14-63-69(52,53)54)13-41-22(5-9-62-10-6-36)34(51)73-11-8-38-24(46)4-7-39-32(50)29(49)35(2,3)16-65-72(60,61)68-71(58,59)64-15-23-28(67-70(55,56)57)27(48)33(66-23)45-18-44-25-30(37)42-17-43-31(25)45/h5,9,12,17-18,22-23,27-29,33,41,47-49H,4,6-8,10-11,13-16,36H2,1-3H3,(H,38,46)(H,39,50)(H,58,59)(H,60,61)(H2,37,42,43)(H2,52,53,54)(H2,55,56,57)/b9-5+

> <PUBCHEM_IUPAC_INCHIKEY>
CFUOAIMJLZVEJD-WEVVVXLNSA-N

> <PUBCHEM_XLOGP3_AA>
-12

> <PUBCHEM_EXACT_MASS>
1140.21909724

> <PUBCHEM_MOLECULAR_FORMULA>
C35H56N10O23P4S

> <PUBCHEM_MOLECULAR_WEIGHT>
1140.8

> <PUBCHEM_OPENEYE_CAN_SMILES>
CC1=NC=C(C(=C1O)CNC(C=COCCN)C(=O)SCCNC(=O)CCNC(=O)C(C(C)(C)COP(=O)(O)OP(=O)(O)OCC2C(C(C(O2)N3C=NC4=C(N=CN=C43)N)O)OP(=O)(O)O)O)COP(=O)(O)O

> <PUBCHEM_OPENEYE_ISO_SMILES>
CC1=NC=C(C(=C1O)CNC(/C=C/OCCN)C(=O)SCCNC(=O)CCNC(=O)C(C(C)(C)COP(=O)(O)OP(=O)(O)OCC2C(C(C(O2)N3C=NC4=C(N=CN=C43)N)O)OP(=O)(O)O)O)COP(=O)(O)O

> <PUBCHEM_CACTVS_TPSA>
536

> <PUBCHEM_MONOISOTOPIC_WEIGHT>
1140.21909724

> <PUBCHEM_TOTAL_CHARGE>
0

> <PUBCHEM_HEAVY_ATOM_COUNT>
73

> <PUBCHEM_ATOM_DEF_STEREO_COUNT>
0

> <PUBCHEM_ATOM_UDEF_STEREO_COUNT>
6

> <PUBCHEM_BOND_DEF_STEREO_COUNT>
1

> <PUBCHEM_BOND_UDEF_STEREO_COUNT>
0

> <PUBCHEM_ISOTOPIC_ATOM_COUNT>
0

> <PUBCHEM_COMPONENT_COUNT>
1

> <PUBCHEM_CACTVS_TAUTO_COUNT>
-1

> <PUBCHEM_COORDINATE_TYPE>
1
5
255

> <PUBCHEM_BONDANNOTATIONS>
50  17  3
42  29  3
29  44  8
29  45  8
30  45  8
30  46  8
31  44  8
31  51  8
32  47  8
32  51  8
37  68  8
37  69  8
41  43  3
44  46  8
46  47  8
60  67  3
62  63  8
62  65  8
63  69  8
65  68  8
39  7  3
40  8  3

$$$$
155488814
  -OEChem-03012215082D

151156  0     1  0  0  0  0  0999 V2000
    7.3038    3.7886    0.0000 S   0  0  0  0  0  0  0  0  0  0  0  0
   12.5948  -10.6593    0.0000 P   0  0  0  0  0  0  0  0  0  0  0  0
   14.2320   -7.2114    0.0000 P   0  0  3  0  0  0  0  0  0  0  0  0
   13.3659   -5.7114    0.0000 P   0  0  3  0  0  0  0  0  0  0  0  0
   15.9070  -10.2992    0.0000 O   0  0  0  0  0  0  0  0  0  0  0  0
   13.3379   -9.9902    0.0000 O   0  0  0  0  0  0  0  0  0  0  0  0
   14.0102  -12.0593    0.0000 O   0  0  0  0  0  0  0  0  0  0  0  0
   14.2320   -8.2114    0.0000 O   0  0  0  0  0  0  0  0  0  0  0  0
   11.8516  -11.3284    0.0000 O   0  0  0  0  0  0  0  0  0  0  0  0
   11.9256   -9.9162    0.0000 O   0  0  0  0  0  0  0  0  0  0  0  0
   13.2639  -11.4024    0.0000 O   0  0  0  0  0  0  0  0  0  0  0  0
   14.2320   -6.2114    0.0000 O   0  0  0  0  0  0  0  0  0  0  0  0
   15.2320   -7.2114    0.0000 O   0  0  0  0  0  0  0  0  0  0  0  0
   13.2320   -7.2114    0.0000 O   0  0  0  0  0  0  0  0  0  0  0  0
   12.4999   -5.2114    0.0000 O   0  0  0  0  0  0  0  0  0  0  0  0
    9.9018   -3.7114    0.0000 O   0  0  0  0  0  0  0  0  0  0  0  0
   12.8659   -6.5774    0.0000 O   0  0  0  0  0  0  0  0  0  0  0  0
   13.8659   -4.8454    0.0000 O   0  0  0  0  0  0  0  0  0  0  0  0
   11.6339   -1.7114    0.0000 O   0  0  0  0  0  0  0  0  0  0  0  0
    9.9018    1.2886    0.0000 O   0  0  0  0  0  0  0  0  0  0  0  0
    3.8396   11.7886    0.0000 O   0  0  0  0  0  0  0  0  0  0  0  0
    7.3038    5.7886    0.0000 O   0  0  0  0  0  0  0  0  0  0  0  0
    2.9736   11.2886    0.0000 O   0  0  0  0  0  0  0  0  0  0  0  0
    5.5717    3.7886    0.0000 O   0  0  0  0  0  0  0  0  0  0  0  0
    2.2120    6.3810    0.0000 O   0  0  0  0  0  0  0  0  0  0  0  0
    3.5389    7.4943    0.0000 O   0  0  0  0  0  0  0  0  0  0  0  0
   16.1858  -12.0593    0.0000 N   0  0  0  0  0  0  0  0  0  0  0  0
   17.4895  -13.0030    0.0000 N   0  0  0  0  0  0  0  0  0  0  0  0
   14.9649  -13.4127    0.0000 N   0  0  0  0  0  0  0  0  0  0  0  0
   15.6721  -14.9938    0.0000 N   0  0  0  0  0  0  0  0  0  0  0  0
   17.3950  -15.1719    0.0000 N   0  0  0  0  0  0  0  0  0  0  0  0
    9.9018   -1.7114    0.0000 N   0  0  0  0  0  0  0  0  0  0  0  0
    3.8396    9.7886    0.0000 N   0  0  0  0  0  0  0  0  0  0  0  0
    5.5717    5.7886    0.0000 N   0  0  0  0  0  0  0  0  0  0  0  0
    5.5717   11.7886    0.0000 N   0  0  0  0  0  0  0  0  0  0  0  0
    8.1698    1.2886    0.0000 N   0  0  0  0  0  0  0  0  0  0  0  0
   14.2890  -10.2992    0.0000 C   0  0  3  0  0  0  0  0  0  0  0  0
   14.5980  -11.2502    0.0000 C   0  0  3  0  0  0  0  0  0  0  0  0
   15.0980   -9.7114    0.0000 C   0  0  3  0  0  0  0  0  0  0  0  0
   15.5980  -11.2502    0.0000 C   0  0  3  0  0  0  0  0  0  0  0  0
   15.0980   -8.7114    0.0000 C   0  0  0  0  0  0  0  0  0  0  0  0
   15.8778  -13.0044    0.0000 C   0  0  0  0  0  0  0  0  0  0  0  0
   17.1798  -12.0584    0.0000 C   0  0  0  0  0  0  0  0  0  0  0  0
   16.6878  -13.5908    0.0000 C   0  0  0  0  0  0  0  0  0  0  0  0
   16.5850  -14.5855    0.0000 C   0  0  0  0  0  0  0  0  0  0  0  0
   11.6339   -3.7114    0.0000 C   0  0  0  0  0  0  0  0  0  0  0  0
   14.8621  -14.4074    0.0000 C   0  0  0  0  0  0  0  0  0  0  0  0
   12.4999   -4.2114    0.0000 C   0  0  0  0  0  0  0  0  0  0  0  0
   10.7679   -3.2114    0.0000 C   0  0  3  0  0  0  0  0  0  0  0  0
   11.1339   -4.5774    0.0000 C   0  0  0  0  0  0  0  0  0  0  0  0
   12.1339   -2.8454    0.0000 C   0  0  0  0  0  0  0  0  0  0  0  0
   10.7679   -2.2114    0.0000 C   0  0  0  0  0  0  0  0  0  0  0  0
    9.9018   -0.7114    0.0000 C   0  0  0  0  0  0  0  0  0  0  0  0
    9.0358   -0.2114    0.0000 C   0  0  0  0  0  0  0  0  0  0  0  0
    5.5717    9.7886    0.0000 C   0  0  0  0  0  0  0  0  0  0  0  0
    4.7057   10.2886    0.0000 C   0  0  3  0  0  0  0  0  0  0  0  0
    5.5717    8.7886    0.0000 C   0  0  0  0  0  0  0  0  0  0  0  0
    6.4377    8.2886    0.0000 C   0  0  0  0  0  0  0  0  0  0  0  0
    6.4377    7.2886    0.0000 C   0  0  0  0  0  0  0  0  0  0  0  0
    5.5717    6.7886    0.0000 C   0  0  0  0  0  0  0  0  0  0  0  0
    9.0358    0.7886    0.0000 C   0  0  0  0  0  0  0  0  0  0  0  0
    4.7057    8.2886    0.0000 C   0  0  0  0  0  0  0  0  0  0  0  0
    4.7057   11.2886    0.0000 C   0  0  0  0  0  0  0  0  0  0  0  0
    4.7057    7.2886    0.0000 C   0  0  0  0  0  0  0  0  0  0  0  0
    7.3317    8.8233    0.0000 C   0  0  0  0  0  0  0  0  0  0  0  0
    5.5717   12.7886    0.0000 C   0  0  0  0  0  0  0  0  0  0  0  0
    7.3317    6.7539    0.0000 C   0  0  0  0  0  0  0  0  0  0  0  0
    6.4377   13.2886    0.0000 C   0  0  0  0  0  0  0  0  0  0  0  0
    6.4377   14.2886    0.0000 C   0  0  0  0  0  0  0  0  0  0  0  0
    8.2377    8.3094    0.0000 C   0  0  0  0  0  0  0  0  0  0  0  0
    4.7057    5.2886    0.0000 C   0  0  0  0  0  0  0  0  0  0  0  0
    8.2377    7.2678    0.0000 C   0  0  0  0  0  0  0  0  0  0  0  0
    8.1698    2.2886    0.0000 C   0  0  0  0  0  0  0  0  0  0  0  0
    7.3038   14.7886    0.0000 C   0  0  0  0  0  0  0  0  0  0  0  0
    6.4377    5.2886    0.0000 C   0  0  0  0  0  0  0  0  0  0  0  0
    2.9736   10.2886    0.0000 C   0  0  0  0  0  0  0  0  0  0  0  0
    7.3038    2.7886    0.0000 C   0  0  0  0  0  0  0  0  0  0  0  0
    3.8396    5.7886    0.0000 C   0  0  0  0  0  0  0  0  0  0  0  0
    4.7057    4.2886    0.0000 C   0  0  0  0  0  0  0  0  0  0  0  0
    6.4377    4.2886    0.0000 C   0  0  0  0  0  0  0  0  0  0  0  0
    7.3038   15.7886    0.0000 C   0  0  0  0  0  0  0  0  0  0  0  0
    2.1076    9.7886    0.0000 C   0  0  0  0  0  0  0  0  0  0  0  0
    2.9736    5.2886    0.0000 C   0  0  0  0  0  0  0  0  0  0  0  0
    3.8396    3.7886    0.0000 C   0  0  0  0  0  0  0  0  0  0  0  0
    2.9736    4.2886    0.0000 C   0  0  0  0  0  0  0  0  0  0  0  0
    3.1969    6.5546    0.0000 C   0  0  0  0  0  0  0  0  0  0  0  0
   13.8506  -10.7376    0.0000 H   0  0  0  0  0  0  0  0  0  0  0  0
   13.9856  -11.1533    0.0000 H   0  0  0  0  0  0  0  0  0  0  0  0
   15.6504   -9.4299    0.0000 H   0  0  0  0  0  0  0  0  0  0  0  0
   16.2103  -11.1533    0.0000 H   0  0  0  0  0  0  0  0  0  0  0  0
   15.7086   -8.8191    0.0000 H   0  0  0  0  0  0  0  0  0  0  0  0
   15.3100   -8.1288    0.0000 H   0  0  0  0  0  0  0  0  0  0  0  0
   13.3936  -11.9944    0.0000 H   0  0  0  0  0  0  0  0  0  0  0  0
   17.5434  -11.5562    0.0000 H   0  0  0  0  0  0  0  0  0  0  0  0
   11.2620  -11.1368    0.0000 H   0  0  0  0  0  0  0  0  0  0  0  0
   11.3192  -10.0451    0.0000 H   0  0  0  0  0  0  0  0  0  0  0  0
   14.2961  -14.6606    0.0000 H   0  0  0  0  0  0  0  0  0  0  0  0
   13.1105   -4.3191    0.0000 H   0  0  0  0  0  0  0  0  0  0  0  0
   12.7120   -3.6288    0.0000 H   0  0  0  0  0  0  0  0  0  0  0  0
   10.2309   -2.9014    0.0000 H   0  0  0  0  0  0  0  0  0  0  0  0
   17.3313  -15.7886    0.0000 H   0  0  0  0  0  0  0  0  0  0  0  0
   17.9610  -14.9187    0.0000 H   0  0  0  0  0  0  0  0  0  0  0  0
   15.5420   -6.6745    0.0000 H   0  0  0  0  0  0  0  0  0  0  0  0
   10.5969   -4.2674    0.0000 H   0  0  0  0  0  0  0  0  0  0  0  0
   10.8239   -5.1144    0.0000 H   0  0  0  0  0  0  0  0  0  0  0  0
   11.6708   -4.8874    0.0000 H   0  0  0  0  0  0  0  0  0  0  0  0
   12.6708   -3.1554    0.0000 H   0  0  0  0  0  0  0  0  0  0  0  0
   12.4439   -2.3084    0.0000 H   0  0  0  0  0  0  0  0  0  0  0  0
   11.5969   -2.5354    0.0000 H   0  0  0  0  0  0  0  0  0  0  0  0
    9.9018   -4.3314    0.0000 H   0  0  0  0  0  0  0  0  0  0  0  0
   12.2459   -6.5774    0.0000 H   0  0  0  0  0  0  0  0  0  0  0  0
    9.3649   -2.0214    0.0000 H   0  0  0  0  0  0  0  0  0  0  0  0
   10.5124   -0.8191    0.0000 H   0  0  0  0  0  0  0  0  0  0  0  0
   10.1139   -0.1288    0.0000 H   0  0  0  0  0  0  0  0  0  0  0  0
    8.4252   -0.1037    0.0000 H   0  0  0  0  0  0  0  0  0  0  0  0
    8.8238   -0.7940    0.0000 H   0  0  0  0  0  0  0  0  0  0  0  0
    6.1823    9.6809    0.0000 H   0  0  0  0  0  0  0  0  0  0  0  0
    5.7838   10.3712    0.0000 H   0  0  0  0  0  0  0  0  0  0  0  0
    4.7057    9.6686    0.0000 H   0  0  0  0  0  0  0  0  0  0  0  0
    4.1687    8.5986    0.0000 H   0  0  0  0  0  0  0  0  0  0  0  0
    4.1687    6.9786    0.0000 H   0  0  0  0  0  0  0  0  0  0  0  0
    3.8396    9.1686    0.0000 H   0  0  0  0  0  0  0  0  0  0  0  0
    7.3245    9.4432    0.0000 H   0  0  0  0  0  0  0  0  0  0  0  0
    5.3596   13.3712    0.0000 H   0  0  0  0  0  0  0  0  0  0  0  0
    4.9611   12.6809    0.0000 H   0  0  0  0  0  0  0  0  0  0  0  0
    7.3245    6.1340    0.0000 H   0  0  0  0  0  0  0  0  0  0  0  0
    6.6498   12.7060    0.0000 H   0  0  0  0  0  0  0  0  0  0  0  0
    7.0483   13.3963    0.0000 H   0  0  0  0  0  0  0  0  0  0  0  0
    6.1086   11.4786    0.0000 H   0  0  0  0  0  0  0  0  0  0  0  0
    6.2257   14.8712    0.0000 H   0  0  0  0  0  0  0  0  0  0  0  0
    5.8271   14.1809    0.0000 H   0  0  0  0  0  0  0  0  0  0  0  0
    7.6328    0.9786    0.0000 H   0  0  0  0  0  0  0  0  0  0  0  0
    8.7735    8.6215    0.0000 H   0  0  0  0  0  0  0  0  0  0  0  0
    8.7735    6.9557    0.0000 H   0  0  0  0  0  0  0  0  0  0  0  0
    8.7804    2.1809    0.0000 H   0  0  0  0  0  0  0  0  0  0  0  0
    8.3818    2.8712    0.0000 H   0  0  0  0  0  0  0  0  0  0  0  0
    7.5158   14.2060    0.0000 H   0  0  0  0  0  0  0  0  0  0  0  0
    7.9143   14.8963    0.0000 H   0  0  0  0  0  0  0  0  0  0  0  0
    6.6932    2.8963    0.0000 H   0  0  0  0  0  0  0  0  0  0  0  0
    7.0917    2.2060    0.0000 H   0  0  0  0  0  0  0  0  0  0  0  0
    5.2426    3.9786    0.0000 H   0  0  0  0  0  0  0  0  0  0  0  0
    7.9238   15.7886    0.0000 H   0  0  0  0  0  0  0  0  0  0  0  0
    7.3038   16.4086    0.0000 H   0  0  0  0  0  0  0  0  0  0  0  0
    6.6838   15.7886    0.0000 H   0  0  0  0  0  0  0  0  0  0  0  0
    1.7976   10.3255    0.0000 H   0  0  0  0  0  0  0  0  0  0  0  0
    1.5707    9.4786    0.0000 H   0  0  0  0  0  0  0  0  0  0  0  0
    2.4176    9.2517    0.0000 H   0  0  0  0  0  0  0  0  0  0  0  0
    2.4367    5.5986    0.0000 H   0  0  0  0  0  0  0  0  0  0  0  0
    3.8396    3.1686    0.0000 H   0  0  0  0  0  0  0  0  0  0  0  0
    2.4367    3.9786    0.0000 H   0  0  0  0  0  0  0  0  0  0  0  0
    2.0000    5.7984    0.0000 H   0  0  0  0  0  0  0  0  0  0  0  0
  1 77  1  0  0  0  0
  1 80  1  0  0  0  0
  2  6  1  0  0  0  0
  2  9  1  0  0  0  0
  2 10  1  0  0  0  0
  2 11  2  0  0  0  0
  3  8  1  0  0  0  0
  3 12  1  0  0  0  0
  3 13  1  0  0  0  0
  3 14  2  0  0  0  0
  4 12  1  0  0  0  0
  4 15  1  0  0  0  0
  4 17  1  0  0  0  0
  4 18  2  0  0  0  0
  5 39  1  0  0  0  0
  5 40  1  0  0  0  0
  6 37  1  0  0  0  0
  7 38  1  0  0  0  0
  7 93  1  0  0  0  0
  8 41  1  0  0  0  0
  9 95  1  0  0  0  0
 10 96  1  0  0  0  0
 13103  1  0  0  0  0
 15 48  1  0  0  0  0
 16 49  1  0  0  0  0
 16110  1  0  0  0  0
 17111  1  0  0  0  0
 19 52  2  0  0  0  0
 20 61  2  0  0  0  0
 21 63  2  0  0  0  0
 22 75  2  0  0  0  0
 23 76  2  0  0  0  0
 24 80  2  0  0  0  0
 25 86  1  0  0  0  0
 25151  1  0  0  0  0
 26 86  2  0  0  0  0
 27 40  1  0  0  0  0
 27 42  1  0  0  0  0
 27 43  1  0  0  0  0
 28 43  2  0  0  0  0
 28 44  1  0  0  0  0
 29 42  2  0  0  0  0
 29 47  1  0  0  0  0
 30 45  1  0  0  0  0
 30 47  2  0  0  0  0
 31 45  1  0  0  0  0
 31101  1  0  0  0  0
 31102  1  0  0  0  0
 32 52  1  0  0  0  0
 32 53  1  0  0  0  0
 32112  1  0  0  0  0
 33 56  1  0  0  0  0
 33 76  1  0  0  0  0
 33122  1  0  0  0  0
 34 60  1  0  0  0  0
 34 71  1  0  0  0  0
 34 75  1  0  0  0  0
 35 63  1  0  0  0  0
 35 66  1  0  0  0  0
 35129  1  0  0  0  0
 36 61  1  0  0  0  0
 36 73  1  0  0  0  0
 36132  1  0  0  0  0
 37 38  1  0  0  0  0
 37 39  1  0  0  0  0
 37 87  1  0  0  0  0
 38 40  1  0  0  0  0
 38 88  1  0  0  0  0
 39 41  1  0  0  0  0
 39 89  1  0  0  0  0
 40 90  1  0  0  0  0
 41 91  1  0  0  0  0
 41 92  1  0  0  0  0
 42 44  1  0  0  0  0
 43 94  1  0  0  0  0
 44 45  2  0  0  0  0
 46 48  1  0  0  0  0
 46 49  1  0  0  0  0
 46 50  1  0  0  0  0
 46 51  1  0  0  0  0
 47 97  1  0  0  0  0
 48 98  1  0  0  0  0
 48 99  1  0  0  0  0
 49 52  1  0  0  0  0
 49100  1  0  0  0  0
 50104  1  0  0  0  0
 50105  1  0  0  0  0
 50106  1  0  0  0  0
 51107  1  0  0  0  0
 51108  1  0  0  0  0
 51109  1  0  0  0  0
 53 54  1  0  0  0  0
 53113  1  0  0  0  0
 53114  1  0  0  0  0
 54 61  1  0  0  0  0
 54115  1  0  0  0  0
 54116  1  0  0  0  0
 55 56  1  0  0  0  0
 55 57  1  0  0  0  0
 55117  1  0  0  0  0
 55118  1  0  0  0  0
 56 63  1  0  0  0  0
 56119  1  0  0  0  0
 57 58  1  0  0  0  0
 57 62  2  0  0  0  0
 58 59  1  0  0  0  0
 58 65  2  0  0  0  0
 59 60  1  0  0  0  0
 59 67  2  0  0  0  0
 60 64  2  0  0  0  0
 62 64  1  0  0  0  0
 62120  1  0  0  0  0
 64121  1  0  0  0  0
 65 70  1  0  0  0  0
 65123  1  0  0  0  0
 66 68  1  0  0  0  0
 66124  1  0  0  0  0
 66125  1  0  0  0  0
 67 72  1  0  0  0  0
 67126  1  0  0  0  0
 68 69  1  0  0  0  0
 68127  1  0  0  0  0
 68128  1  0  0  0  0
 69 74  1  0  0  0  0
 69130  1  0  0  0  0
 69131  1  0  0  0  0
 70 72  2  0  0  0  0
 70133  1  0  0  0  0
 71 78  1  0  0  0  0
 71 79  2  0  0  0  0
 72134  1  0  0  0  0
 73 77  1  0  0  0  0
 73135  1  0  0  0  0
 73136  1  0  0  0  0
 74 81  1  0  0  0  0
 74137  1  0  0  0  0
 74138  1  0  0  0  0
 75 80  1  0  0  0  0
 76 82  1  0  0  0  0
 77139  1  0  0  0  0
 77140  1  0  0  0  0
 78 83  2  0  0  0  0
 78 86  1  0  0  0  0
 79 84  1  0  0  0  0
 79141  1  0  0  0  0
 81142  1  0  0  0  0
 81143  1  0  0  0  0
 81144  1  0  0  0  0
 82145  1  0  0  0  0
 82146  1  0  0  0  0
 82147  1  0  0  0  0
 83 85  1  0  0  0  0
 83148  1  0  0  0  0
 84 85  2  0  0  0  0
 84149  1  0  0  0  0
 85150  1  0  0  0  0
M  END
> <PUBCHEM_COMPOUND_CID>
155488814

> <PUBCHEM_COMPOUND_CANONICALIZED>
1

> <PUBCHEM_CACTVS_COMPLEXITY>
2510

> <PUBCHEM_CACTVS_HBOND_ACCEPTOR>
27

> <PUBCHEM_CACTVS_HBOND_DONOR>
12

> <PUBCHEM_CACTVS_ROTATABLE_BOND>
32

> <PUBCHEM_CACTVS_SUBSKEYS>
AAADcfB//gNAAAAAAAAAAAAAAAAAAWJAAAA8YMEAAAAAAFjB/AAAHgQQCCAADjzl3wa3+P/MFxioQyfzfIKCgC01ErAJ2KHofNiLfnrA3fGedYhv1gP72ef6+OKPiAACQAASAAAQAASAACQAAAAAAAAAAA==

> <PUBCHEM_IUPAC_OPENEYE_NAME>
2-[[4-[2-acetamido-3-oxo-3-(pentylamino)propyl]-1-naphthyl]-[2-[2-[3-[[4-[[[5-(6-aminopurin-9-yl)-4-hydroxy-3-phosphonooxy-tetrahydrofuran-2-yl]methoxy-hydroxy-phosphoryl]oxy-hydroxy-phosphoryl]oxy-2-hydroxy-3,3-dimethyl-butanoyl]amino]propanoylamino]ethylsulfanyl]-2-oxo-acetyl]amino]benzoic acid

> <PUBCHEM_IUPAC_CAS_NAME>
2-[[4-[2-acetamido-3-oxo-3-(pentylamino)propyl]-1-naphthalenyl]-[2-[2-[[3-[[4-[[[5-(6-aminopurin-9-yl)-4-hydroxy-3-phosphonooxy-2-oxolanyl]methoxy-hydroxyphosphoryl]oxy-hydroxyphosphoryl]oxy-2-hydroxy-3,3-dimethyl-1-oxobutyl]amino]-1-oxopropyl]amino]ethylthio]-1,2-dioxoethyl]amino]benzoic acid

> <PUBCHEM_IUPAC_NAME_MARKUP>
2-[[4-[2-acetamido-3-oxo-3-(pentylamino)propyl]naphthalen-1-yl]-[2-[2-[3-[[4-[[[5-(6-aminopurin-9-yl)-4-hydroxy-3-phosphonooxyoxolan-2-yl]methoxy-hydroxyphosphoryl]oxy-hydroxyphosphoryl]oxy-2-hydroxy-3,3-dimethylbutanoyl]amino]propanoylamino]ethylsulfanyl]-2-oxoacetyl]amino]benzoic acid

> <PUBCHEM_IUPAC_NAME>
2-[[4-[2-acetamido-3-oxo-3-(pentylamino)propyl]naphthalen-1-yl]-[2-[2-[3-[[4-[[[5-(6-aminopurin-9-yl)-4-hydroxy-3-phosphonooxyoxolan-2-yl]methoxy-hydroxyphosphoryl]oxy-hydroxyphosphoryl]oxy-2-hydroxy-3,3-dimethylbutanoyl]amino]propanoylamino]ethylsulfanyl]-2-oxoacetyl]amino]benzoic acid

> <PUBCHEM_IUPAC_SYSTEMATIC_NAME>
2-[[4-[2-acetamido-3-oxidanylidene-3-(pentylamino)propyl]naphthalen-1-yl]-[2-[2-[3-[[4-[[[5-(6-aminopurin-9-yl)-4-oxidanyl-3-phosphonooxy-oxolan-2-yl]methoxy-oxidanyl-phosphoryl]oxy-oxidanyl-phosphoryl]oxy-3,3-dimethyl-2-oxidanyl-butanoyl]amino]propanoylamino]ethylsulfanyl]-2-oxidanylidene-ethanoyl]amino]benzoic acid

> <PUBCHEM_IUPAC_TRADITIONAL_NAME>
2-[[4-[2-acetamido-3-(amylamino)-3-keto-propyl]-1-naphthyl]-[2-[2-[3-[[4-[[(5-adenin-9-yl-4-hydroxy-3-phosphonooxy-tetrahydrofuran-2-yl)methoxy-hydroxy-phosphoryl]oxy-hydroxy-phosphoryl]oxy-2-hydroxy-3,3-dimethyl-butanoyl]amino]propanoylamino]ethylthio]-2-keto-acetyl]amino]benzoic acid

> <PUBCHEM_IUPAC_INCHI>
InChI=1S/C50H65N10O22P3S/c1-5-6-11-19-53-44(65)33(58-28(2)61)23-29-16-17-35(31-13-8-7-12-30(29)31)60(34-15-10-9-14-32(34)48(68)69)46(67)49(70)86-22-21-52-37(62)18-20-54-45(66)41(64)50(3,4)25-79-85(76,77)82-84(74,75)78-24-36-40(81-83(71,72)73)39(63)47(80-36)59-27-57-38-42(51)55-26-56-43(38)59/h7-10,12-17,26-27,33,36,39-41,47,63-64H,5-6,11,18-25H2,1-4H3,(H,52,62)(H,53,65)(H,54,66)(H,58,61)(H,68,69)(H,74,75)(H,76,77)(H2,51,55,56)(H2,71,72,73)

> <PUBCHEM_IUPAC_INCHIKEY>
CJXCTVFJQQECMS-UHFFFAOYSA-N

> <PUBCHEM_XLOGP3_AA>
-1.1

> <PUBCHEM_EXACT_MASS>
1282.32084591

> <PUBCHEM_MOLECULAR_FORMULA>
C50H65N10O22P3S

> <PUBCHEM_MOLECULAR_WEIGHT>
1283.1

> <PUBCHEM_OPENEYE_CAN_SMILES>
CCCCCNC(=O)C(CC1=CC=C(C2=CC=CC=C12)N(C3=CC=CC=C3C(=O)O)C(=O)C(=O)SCCNC(=O)CCNC(=O)C(C(C)(C)COP(=O)(O)OP(=O)(O)OCC4C(C(C(O4)N5C=NC6=C(N=CN=C65)N)O)OP(=O)(O)O)O)NC(=O)C

> <PUBCHEM_OPENEYE_ISO_SMILES>
CCCCCNC(=O)C(CC1=CC=C(C2=CC=CC=C12)N(C3=CC=CC=C3C(=O)O)C(=O)C(=O)SCCNC(=O)CCNC(=O)C(C(C)(C)COP(=O)(O)OP(=O)(O)OCC4C(C(C(O4)N5C=NC6=C(N=CN=C65)N)O)OP(=O)(O)O)O)NC(=O)C

> <PUBCHEM_CACTVS_TPSA>
505

> <PUBCHEM_MONOISOTOPIC_WEIGHT>
1282.32084591

> <PUBCHEM_TOTAL_CHARGE>
0

> <PUBCHEM_HEAVY_ATOM_COUNT>
86

> <PUBCHEM_ATOM_DEF_STEREO_COUNT>
0

> <PUBCHEM_ATOM_UDEF_STEREO_COUNT>
6

> <PUBCHEM_BOND_DEF_STEREO_COUNT>
0

> <PUBCHEM_BOND_UDEF_STEREO_COUNT>
0

> <PUBCHEM_ISOTOPIC_ATOM_COUNT>
0

> <PUBCHEM_COMPONENT_COUNT>
1

> <PUBCHEM_CACTVS_TAUTO_COUNT>
-1

> <PUBCHEM_COORDINATE_TYPE>
1
5
255

> <PUBCHEM_BONDANNOTATIONS>
49  16  3
40  27  3
27  42  8
27  43  8
28  43  8
28  44  8
29  42  8
29  47  8
30  45  8
30  47  8
39  41  3
42  44  8
44  45  8
56  55  3
57  58  8
57  62  8
58  59  8
58  65  8
59  60  8
59  67  8
37  6  3
60  64  8
62  64  8
65  70  8
67  72  8
38  7  3
70  72  8
71  78  8
71  79  8
78  83  8
79  84  8
83  85  8
84  85  8

$$$$
155488832
  -OEChem-03012215082D

153157  0     1  0  0  0  0  0999 V2000
   12.6572    4.2886    0.0000 S   0  0  0  0  0  0  0  0  0  0  0  0
    7.3662  -10.1593    0.0000 P   0  0  0  0  0  0  0  0  0  0  0  0
    5.7290   -6.7114    0.0000 P   0  0  3  0  0  0  0  0  0  0  0  0
    6.5950   -5.2114    0.0000 P   0  0  3  0  0  0  0  0  0  0  0  0
    4.0540   -9.7992    0.0000 O   0  0  0  0  0  0  0  0  0  0  0  0
    6.6231   -9.4902    0.0000 O   0  0  0  0  0  0  0  0  0  0  0  0
    5.9508  -11.5593    0.0000 O   0  0  0  0  0  0  0  0  0  0  0  0
    5.7290   -7.7114    0.0000 O   0  0  0  0  0  0  0  0  0  0  0  0
    8.1094  -10.8284    0.0000 O   0  0  0  0  0  0  0  0  0  0  0  0
    8.0354   -9.4162    0.0000 O   0  0  0  0  0  0  0  0  0  0  0  0
    6.6971  -10.9024    0.0000 O   0  0  0  0  0  0  0  0  0  0  0  0
    5.7290   -5.7114    0.0000 O   0  0  0  0  0  0  0  0  0  0  0  0
    4.7290   -6.7114    0.0000 O   0  0  0  0  0  0  0  0  0  0  0  0
    6.7290   -6.7114    0.0000 O   0  0  0  0  0  0  0  0  0  0  0  0
    7.4611   -4.7114    0.0000 O   0  0  0  0  0  0  0  0  0  0  0  0
   10.0592   -3.2114    0.0000 O   0  0  0  0  0  0  0  0  0  0  0  0
    7.0950   -6.0774    0.0000 O   0  0  0  0  0  0  0  0  0  0  0  0
    6.0950   -4.3454    0.0000 O   0  0  0  0  0  0  0  0  0  0  0  0
    8.3271   -1.2114    0.0000 O   0  0  0  0  0  0  0  0  0  0  0  0
   10.0592    1.7886    0.0000 O   0  0  0  0  0  0  0  0  0  0  0  0
   16.1213    9.2886    0.0000 O   0  0  0  0  0  0  0  0  0  0  0  0
   14.3893    6.2886    0.0000 O   0  0  0  0  0  0  0  0  0  0  0  0
   14.3893   13.2886    0.0000 O   0  0  0  0  0  0  0  0  0  0  0  0
   10.9252   12.2886    0.0000 O   0  0  0  0  0  0  0  0  0  0  0  0
   11.7912   10.7886    0.0000 O   0  0  0  0  0  0  0  0  0  0  0  0
   14.3893    4.2886    0.0000 O   0  0  0  0  0  0  0  0  0  0  0  0
   11.7912    5.7886    0.0000 O   0  0  0  0  0  0  0  0  0  0  0  0
   12.6572    7.2886    0.0000 O   0  0  0  0  0  0  0  0  0  0  0  0
    3.7752  -11.5593    0.0000 N   0  0  0  0  0  0  0  0  0  0  0  0
    2.4715  -12.5030    0.0000 N   0  0  0  0  0  0  0  0  0  0  0  0
    4.9961  -12.9127    0.0000 N   0  0  0  0  0  0  0  0  0  0  0  0
    4.2888  -14.4938    0.0000 N   0  0  0  0  0  0  0  0  0  0  0  0
    2.5660  -14.6719    0.0000 N   0  0  0  0  0  0  0  0  0  0  0  0
   10.0592   -1.2114    0.0000 N   0  0  0  0  0  0  0  0  0  0  0  0
   11.7912    1.7886    0.0000 N   0  0  0  0  0  0  0  0  0  0  0  0
   15.2553   11.7886    0.0000 N   0  0  0  0  0  0  0  0  0  0  0  0
   16.9874   10.7886    0.0000 N   0  0  0  0  0  0  0  0  0  0  0  0
   13.5233   11.7886    0.0000 N   0  0  0  0  0  0  0  0  0  0  0  0
    5.6720   -9.7992    0.0000 C   0  0  3  0  0  0  0  0  0  0  0  0
    5.3630  -10.7502    0.0000 C   0  0  3  0  0  0  0  0  0  0  0  0
    4.8630   -9.2114    0.0000 C   0  0  3  0  0  0  0  0  0  0  0  0
    4.3630  -10.7502    0.0000 C   0  0  3  0  0  0  0  0  0  0  0  0
    4.8630   -8.2114    0.0000 C   0  0  0  0  0  0  0  0  0  0  0  0
    4.0832  -12.5044    0.0000 C   0  0  0  0  0  0  0  0  0  0  0  0
    2.7811  -11.5584    0.0000 C   0  0  0  0  0  0  0  0  0  0  0  0
    3.2732  -13.0908    0.0000 C   0  0  0  0  0  0  0  0  0  0  0  0
    3.3760  -14.0855    0.0000 C   0  0  0  0  0  0  0  0  0  0  0  0
    8.3271   -3.2114    0.0000 C   0  0  0  0  0  0  0  0  0  0  0  0
    5.0989  -13.9074    0.0000 C   0  0  0  0  0  0  0  0  0  0  0  0
    7.4611   -3.7114    0.0000 C   0  0  0  0  0  0  0  0  0  0  0  0
    9.1931   -2.7114    0.0000 C   0  0  3  0  0  0  0  0  0  0  0  0
    8.8271   -4.0774    0.0000 C   0  0  0  0  0  0  0  0  0  0  0  0
    7.8271   -2.3454    0.0000 C   0  0  0  0  0  0  0  0  0  0  0  0
    9.1931   -1.7114    0.0000 C   0  0  0  0  0  0  0  0  0  0  0  0
   10.0592   -0.2114    0.0000 C   0  0  0  0  0  0  0  0  0  0  0  0
   10.9252    0.2886    0.0000 C   0  0  0  0  0  0  0  0  0  0  0  0
   10.9252    1.2886    0.0000 C   0  0  0  0  0  0  0  0  0  0  0  0
   15.2553   10.7886    0.0000 C   0  0  3  0  0  0  0  0  0  0  0  0
   14.3893   10.2886    0.0000 C   0  0  0  0  0  0  0  0  0  0  0  0
   11.7912    2.7886    0.0000 C   0  0  0  0  0  0  0  0  0  0  0  0
   18.7194   10.7886    0.0000 C   0  0  0  0  0  0  0  0  0  0  0  0
   17.8534   10.2886    0.0000 C   0  0  0  0  0  0  0  0  0  0  0  0
   16.1213   10.2886    0.0000 C   0  0  0  0  0  0  0  0  0  0  0  0
   19.5854   10.2886    0.0000 C   0  0  0  0  0  0  0  0  0  0  0  0
   14.3893    9.2886    0.0000 C   0  0  0  0  0  0  0  0  0  0  0  0
   20.4515   10.7886    0.0000 C   0  0  0  0  0  0  0  0  0  0  0  0
   12.6572    3.2886    0.0000 C   0  0  0  0  0  0  0  0  0  0  0  0
   12.6572   12.2886    0.0000 C   0  0  3  0  0  0  0  0  0  0  0  0
   14.3893   12.2886    0.0000 C   0  0  0  0  0  0  0  0  0  0  0  0
   15.2553    8.7886    0.0000 C   0  0  0  0  0  0  0  0  0  0  0  0
   13.5233    8.7886    0.0000 C   0  0  0  0  0  0  0  0  0  0  0  0
   12.6572   13.2886    0.0000 C   0  0  0  0  0  0  0  0  0  0  0  0
   21.3175   10.2886    0.0000 C   0  0  0  0  0  0  0  0  0  0  0  0
   14.3893    7.2886    0.0000 C   0  0  0  0  0  0  0  0  0  0  0  0
   15.2553    7.7886    0.0000 C   0  0  0  0  0  0  0  0  0  0  0  0
   13.5233    7.7886    0.0000 C   0  0  0  0  0  0  0  0  0  0  0  0
   11.7912   13.7886    0.0000 C   0  0  0  0  0  0  0  0  0  0  0  0
   11.7912   11.7886    0.0000 C   0  0  0  0  0  0  0  0  0  0  0  0
   13.5233    5.7886    0.0000 C   0  0  3  0  0  0  0  0  0  0  0  0
   13.5233    4.7886    0.0000 C   0  0  0  0  0  0  0  0  0  0  0  0
   10.9252   13.2886    0.0000 C   0  0  0  0  0  0  0  0  0  0  0  0
   11.7912   14.7886    0.0000 C   0  0  0  0  0  0  0  0  0  0  0  0
   10.0592   13.7886    0.0000 C   0  0  0  0  0  0  0  0  0  0  0  0
   10.9252   15.2886    0.0000 C   0  0  0  0  0  0  0  0  0  0  0  0
   12.6572    6.2886    0.0000 C   0  0  0  0  0  0  0  0  0  0  0  0
   10.0592   14.7886    0.0000 C   0  0  0  0  0  0  0  0  0  0  0  0
    6.1104  -10.2376    0.0000 H   0  0  0  0  0  0  0  0  0  0  0  0
    5.0815  -11.3027    0.0000 H   0  0  0  0  0  0  0  0  0  0  0  0
    4.3106   -8.9299    0.0000 H   0  0  0  0  0  0  0  0  0  0  0  0
    4.6445  -11.3027    0.0000 H   0  0  0  0  0  0  0  0  0  0  0  0
    4.6510   -7.6288    0.0000 H   0  0  0  0  0  0  0  0  0  0  0  0
    4.2524   -8.3191    0.0000 H   0  0  0  0  0  0  0  0  0  0  0  0
    6.5674  -11.4944    0.0000 H   0  0  0  0  0  0  0  0  0  0  0  0
    2.4176  -11.0562    0.0000 H   0  0  0  0  0  0  0  0  0  0  0  0
    8.6990  -10.6368    0.0000 H   0  0  0  0  0  0  0  0  0  0  0  0
    8.6418   -9.5451    0.0000 H   0  0  0  0  0  0  0  0  0  0  0  0
    5.6648  -14.1606    0.0000 H   0  0  0  0  0  0  0  0  0  0  0  0
    7.2490   -3.1288    0.0000 H   0  0  0  0  0  0  0  0  0  0  0  0
    6.8505   -3.8191    0.0000 H   0  0  0  0  0  0  0  0  0  0  0  0
    9.7301   -2.4014    0.0000 H   0  0  0  0  0  0  0  0  0  0  0  0
    2.6297  -15.2886    0.0000 H   0  0  0  0  0  0  0  0  0  0  0  0
    2.0000  -14.4187    0.0000 H   0  0  0  0  0  0  0  0  0  0  0  0
    4.4190   -6.1745    0.0000 H   0  0  0  0  0  0  0  0  0  0  0  0
    8.2902   -4.3874    0.0000 H   0  0  0  0  0  0  0  0  0  0  0  0
    9.1371   -4.6144    0.0000 H   0  0  0  0  0  0  0  0  0  0  0  0
    9.3640   -3.7674    0.0000 H   0  0  0  0  0  0  0  0  0  0  0  0
    8.3640   -2.0354    0.0000 H   0  0  0  0  0  0  0  0  0  0  0  0
    7.5171   -1.8084    0.0000 H   0  0  0  0  0  0  0  0  0  0  0  0
    7.2902   -2.6554    0.0000 H   0  0  0  0  0  0  0  0  0  0  0  0
   10.0592   -3.8314    0.0000 H   0  0  0  0  0  0  0  0  0  0  0  0
    7.7150   -6.0774    0.0000 H   0  0  0  0  0  0  0  0  0  0  0  0
   10.5961   -1.5214    0.0000 H   0  0  0  0  0  0  0  0  0  0  0  0
    9.8471    0.3712    0.0000 H   0  0  0  0  0  0  0  0  0  0  0  0
    9.4486   -0.3191    0.0000 H   0  0  0  0  0  0  0  0  0  0  0  0
   11.1372   -0.2940    0.0000 H   0  0  0  0  0  0  0  0  0  0  0  0
   11.5358    0.3963    0.0000 H   0  0  0  0  0  0  0  0  0  0  0  0
   12.3281    1.4786    0.0000 H   0  0  0  0  0  0  0  0  0  0  0  0
   14.7184   11.0986    0.0000 H   0  0  0  0  0  0  0  0  0  0  0  0
   14.1772   10.8712    0.0000 H   0  0  0  0  0  0  0  0  0  0  0  0
   13.7787   10.1809    0.0000 H   0  0  0  0  0  0  0  0  0  0  0  0
   11.5792    3.3712    0.0000 H   0  0  0  0  0  0  0  0  0  0  0  0
   11.1806    2.6809    0.0000 H   0  0  0  0  0  0  0  0  0  0  0  0
   19.1179   11.2635    0.0000 H   0  0  0  0  0  0  0  0  0  0  0  0
   18.3209   11.2635    0.0000 H   0  0  0  0  0  0  0  0  0  0  0  0
   17.4549    9.8137    0.0000 H   0  0  0  0  0  0  0  0  0  0  0  0
   18.2519    9.8137    0.0000 H   0  0  0  0  0  0  0  0  0  0  0  0
   19.1869    9.8137    0.0000 H   0  0  0  0  0  0  0  0  0  0  0  0
   19.9840    9.8137    0.0000 H   0  0  0  0  0  0  0  0  0  0  0  0
   15.7922   12.0986    0.0000 H   0  0  0  0  0  0  0  0  0  0  0  0
   16.9874   11.4086    0.0000 H   0  0  0  0  0  0  0  0  0  0  0  0
   20.8500   11.2635    0.0000 H   0  0  0  0  0  0  0  0  0  0  0  0
   20.0529   11.2635    0.0000 H   0  0  0  0  0  0  0  0  0  0  0  0
   12.8693    2.7060    0.0000 H   0  0  0  0  0  0  0  0  0  0  0  0
   13.2678    3.3963    0.0000 H   0  0  0  0  0  0  0  0  0  0  0  0
   13.1942   12.5986    0.0000 H   0  0  0  0  0  0  0  0  0  0  0  0
   13.2678   13.1809    0.0000 H   0  0  0  0  0  0  0  0  0  0  0  0
   12.8693   13.8712    0.0000 H   0  0  0  0  0  0  0  0  0  0  0  0
   15.7922    9.0986    0.0000 H   0  0  0  0  0  0  0  0  0  0  0  0
   12.9863    9.0986    0.0000 H   0  0  0  0  0  0  0  0  0  0  0  0
   13.5233   11.1686    0.0000 H   0  0  0  0  0  0  0  0  0  0  0  0
   21.0075    9.7517    0.0000 H   0  0  0  0  0  0  0  0  0  0  0  0
   21.8544    9.9786    0.0000 H   0  0  0  0  0  0  0  0  0  0  0  0
   21.6275   10.8255    0.0000 H   0  0  0  0  0  0  0  0  0  0  0  0
   15.7922    7.4786    0.0000 H   0  0  0  0  0  0  0  0  0  0  0  0
   12.9863    7.4786    0.0000 H   0  0  0  0  0  0  0  0  0  0  0  0
   13.5233    6.4086    0.0000 H   0  0  0  0  0  0  0  0  0  0  0  0
   10.9252   12.6686    0.0000 H   0  0  0  0  0  0  0  0  0  0  0  0
   12.3281   15.0986    0.0000 H   0  0  0  0  0  0  0  0  0  0  0  0
    9.5222   13.4786    0.0000 H   0  0  0  0  0  0  0  0  0  0  0  0
   10.9252   15.9086    0.0000 H   0  0  0  0  0  0  0  0  0  0  0  0
    9.5222   15.0986    0.0000 H   0  0  0  0  0  0  0  0  0  0  0  0
   10.3882   11.9786    0.0000 H   0  0  0  0  0  0  0  0  0  0  0  0
   11.2543    6.0986    0.0000 H   0  0  0  0  0  0  0  0  0  0  0  0
  1 67  1  0  0  0  0
  1 80  1  0  0  0  0
  2  6  1  0  0  0  0
  2  9  1  0  0  0  0
  2 10  1  0  0  0  0
  2 11  2  0  0  0  0
  3  8  1  0  0  0  0
  3 12  1  0  0  0  0
  3 13  1  0  0  0  0
  3 14  2  0  0  0  0
  4 12  1  0  0  0  0
  4 15  1  0  0  0  0
  4 17  1  0  0  0  0
  4 18  2  0  0  0  0
  5 41  1  0  0  0  0
  5 42  1  0  0  0  0
  6 39  1  0  0  0  0
  7 40  1  0  0  0  0
  7 93  1  0  0  0  0
  8 43  1  0  0  0  0
  9 95  1  0  0  0  0
 10 96  1  0  0  0  0
 13103  1  0  0  0  0
 15 50  1  0  0  0  0
 16 51  1  0  0  0  0
 16110  1  0  0  0  0
 17111  1  0  0  0  0
 19 54  2  0  0  0  0
 20 57  2  0  0  0  0
 21 63  2  0  0  0  0
 22 74  1  0  0  0  0
 22 79  1  0  0  0  0
 23 69  2  0  0  0  0
 24 78  1  0  0  0  0
 24152  1  0  0  0  0
 25 78  2  0  0  0  0
 26 80  2  0  0  0  0
 27 85  1  0  0  0  0
 27153  1  0  0  0  0
 28 85  2  0  0  0  0
 29 42  1  0  0  0  0
 29 44  1  0  0  0  0
 29 45  1  0  0  0  0
 30 45  2  0  0  0  0
 30 46  1  0  0  0  0
 31 44  2  0  0  0  0
 31 49  1  0  0  0  0
 32 47  1  0  0  0  0
 32 49  2  0  0  0  0
 33 47  1  0  0  0  0
 33101  1  0  0  0  0
 33102  1  0  0  0  0
 34 54  1  0  0  0  0
 34 55  1  0  0  0  0
 34112  1  0  0  0  0
 35 57  1  0  0  0  0
 35 60  1  0  0  0  0
 35117  1  0  0  0  0
 36 58  1  0  0  0  0
 36 69  1  0  0  0  0
 36129  1  0  0  0  0
 37 62  1  0  0  0  0
 37 63  1  0  0  0  0
 37130  1  0  0  0  0
 38 68  1  0  0  0  0
 38 69  1  0  0  0  0
 38140  1  0  0  0  0
 39 40  1  0  0  0  0
 39 41  1  0  0  0  0
 39 87  1  0  0  0  0
 40 42  1  0  0  0  0
 40 88  1  0  0  0  0
 41 43  1  0  0  0  0
 41 89  1  0  0  0  0
 42 90  1  0  0  0  0
 43 91  1  0  0  0  0
 43 92  1  0  0  0  0
 44 46  1  0  0  0  0
 45 94  1  0  0  0  0
 46 47  2  0  0  0  0
 48 50  1  0  0  0  0
 48 51  1  0  0  0  0
 48 52  1  0  0  0  0
 48 53  1  0  0  0  0
 49 97  1  0  0  0  0
 50 98  1  0  0  0  0
 50 99  1  0  0  0  0
 51 54  1  0  0  0  0
 51100  1  0  0  0  0
 52104  1  0  0  0  0
 52105  1  0  0  0  0
 52106  1  0  0  0  0
 53107  1  0  0  0  0
 53108  1  0  0  0  0
 53109  1  0  0  0  0
 55 56  1  0  0  0  0
 55113  1  0  0  0  0
 55114  1  0  0  0  0
 56 57  1  0  0  0  0
 56115  1  0  0  0  0
 56116  1  0  0  0  0
 58 59  1  0  0  0  0
 58 63  1  0  0  0  0
 58118  1  0  0  0  0
 59 65  1  0  0  0  0
 59119  1  0  0  0  0
 59120  1  0  0  0  0
 60 67  1  0  0  0  0
 60121  1  0  0  0  0
 60122  1  0  0  0  0
 61 62  1  0  0  0  0
 61 64  1  0  0  0  0
 61123  1  0  0  0  0
 61124  1  0  0  0  0
 62125  1  0  0  0  0
 62126  1  0  0  0  0
 64 66  1  0  0  0  0
 64127  1  0  0  0  0
 64128  1  0  0  0  0
 65 70  2  0  0  0  0
 65 71  1  0  0  0  0
 66 73  1  0  0  0  0
 66131  1  0  0  0  0
 66132  1  0  0  0  0
 67133  1  0  0  0  0
 67134  1  0  0  0  0
 68 72  1  0  0  0  0
 68 78  1  0  0  0  0
 68135  1  0  0  0  0
 70 75  1  0  0  0  0
 70138  1  0  0  0  0
 71 76  2  0  0  0  0
 71139  1  0  0  0  0
 72 77  1  0  0  0  0
 72136  1  0  0  0  0
 72137  1  0  0  0  0
 73141  1  0  0  0  0
 73142  1  0  0  0  0
 73143  1  0  0  0  0
 74 75  2  0  0  0  0
 74 76  1  0  0  0  0
 75144  1  0  0  0  0
 76145  1  0  0  0  0
 77 81  2  0  0  0  0
 77 82  1  0  0  0  0
 79 80  1  0  0  0  0
 79 85  1  0  0  0  0
 79146  1  0  0  0  0
 81 83  1  0  0  0  0
 81147  1  0  0  0  0
 82 84  2  0  0  0  0
 82148  1  0  0  0  0
 83 86  2  0  0  0  0
 83149  1  0  0  0  0
 84 86  1  0  0  0  0
 84150  1  0  0  0  0
 86151  1  0  0  0  0
M  END
> <PUBCHEM_COMPOUND_CID>
155488832

> <PUBCHEM_COMPOUND_CANONICALIZED>
1

> <PUBCHEM_CACTVS_COMPLEXITY>
2430

> <PUBCHEM_CACTVS_HBOND_ACCEPTOR>
29

> <PUBCHEM_CACTVS_HBOND_DONOR>
14

> <PUBCHEM_CACTVS_ROTATABLE_BOND>
36

> <PUBCHEM_CACTVS_SUBSKEYS>
AAADcfB//gNAAAAAAAAAAAAAAAAAAWJAAAA8YIAAAAAAAFgB/AAAHgQQCCAADjzl3wa3/r/MFxioQyfzfIKCiC0xMLAJ2KHuXJiPfj7s+X+efCiv9hP7qCf6+KKPIAAAAAAAAABAAAAAAAAAAAAAAAAAAA==

> <PUBCHEM_IUPAC_OPENEYE_NAME>
3-[2-[3-[[4-[[[5-(6-aminopurin-9-yl)-4-hydroxy-3-phosphonooxy-tetrahydrofuran-2-yl]methoxy-hydroxy-phosphoryl]oxy-hydroxy-phosphoryl]oxy-2-hydroxy-3,3-dimethyl-butanoyl]amino]propanoylamino]ethylsulfanyl]-2-[4-[2-[(1-carboxy-2-phenyl-ethyl)carbamoylamino]-3-oxo-3-(pentylamino)propyl]phenoxy]-3-oxo-propanoic acid

> <PUBCHEM_IUPAC_CAS_NAME>
3-[2-[[3-[[4-[[[5-(6-aminopurin-9-yl)-4-hydroxy-3-phosphonooxy-2-oxolanyl]methoxy-hydroxyphosphoryl]oxy-hydroxyphosphoryl]oxy-2-hydroxy-3,3-dimethyl-1-oxobutyl]amino]-1-oxopropyl]amino]ethylthio]-2-[4-[2-[[[(1-carboxy-2-phenylethyl)amino]-oxomethyl]amino]-3-oxo-3-(pentylamino)propyl]phenoxy]-3-oxopropanoic acid

> <PUBCHEM_IUPAC_NAME_MARKUP>
3-[2-[3-[[4-[[[5-(6-aminopurin-9-yl)-4-hydroxy-3-phosphonooxyoxolan-2-yl]methoxy-hydroxyphosphoryl]oxy-hydroxyphosphoryl]oxy-2-hydroxy-3,3-dimethylbutanoyl]amino]propanoylamino]ethylsulfanyl]-2-[4-[2-[(1-carboxy-2-phenylethyl)carbamoylamino]-3-oxo-3-(pentylamino)propyl]phenoxy]-3-oxopropanoic acid

> <PUBCHEM_IUPAC_NAME>
3-[2-[3-[[4-[[[5-(6-aminopurin-9-yl)-4-hydroxy-3-phosphonooxyoxolan-2-yl]methoxy-hydroxyphosphoryl]oxy-hydroxyphosphoryl]oxy-2-hydroxy-3,3-dimethylbutanoyl]amino]propanoylamino]ethylsulfanyl]-2-[4-[2-[(1-carboxy-2-phenylethyl)carbamoylamino]-3-oxo-3-(pentylamino)propyl]phenoxy]-3-oxopropanoic acid

> <PUBCHEM_IUPAC_SYSTEMATIC_NAME>
3-[2-[3-[[4-[[[5-(6-aminopurin-9-yl)-4-oxidanyl-3-phosphonooxy-oxolan-2-yl]methoxy-oxidanyl-phosphoryl]oxy-oxidanyl-phosphoryl]oxy-3,3-dimethyl-2-oxidanyl-butanoyl]amino]propanoylamino]ethylsulfanyl]-3-oxidanylidene-2-[4-[3-oxidanylidene-2-[(1-oxidanyl-1-oxidanylidene-3-phenyl-propan-2-yl)carbamoylamino]-3-(pentylamino)propyl]phenoxy]propanoic acid

> <PUBCHEM_IUPAC_TRADITIONAL_NAME>
3-[2-[3-[[4-[[(5-adenin-9-yl-4-hydroxy-3-phosphonooxy-tetrahydrofuran-2-yl)methoxy-hydroxy-phosphoryl]oxy-hydroxy-phosphoryl]oxy-2-hydroxy-3,3-dimethyl-butanoyl]amino]propanoylamino]ethylthio]-2-[4-[3-(amylamino)-2-[(1-carboxy-2-phenyl-ethyl)carbamoylamino]-3-keto-propyl]phenoxy]-3-keto-propionic acid

> <PUBCHEM_IUPAC_INCHI>
InChI=1S/C48H67N10O24P3S/c1-4-5-9-17-51-41(62)30(56-47(69)57-31(44(64)65)22-27-10-7-6-8-11-27)21-28-12-14-29(15-13-28)79-37(45(66)67)46(68)86-20-19-50-33(59)16-18-52-42(63)38(61)48(2,3)24-78-85(75,76)82-84(73,74)77-23-32-36(81-83(70,71)72)35(60)43(80-32)58-26-55-34-39(49)53-25-54-40(34)58/h6-8,10-15,25-26,30-32,35-38,43,60-61H,4-5,9,16-24H2,1-3H3,(H,50,59)(H,51,62)(H,52,63)(H,64,65)(H,66,67)(H,73,74)(H,75,76)(H2,49,53,54)(H2,56,57,69)(H2,70,71,72)

> <PUBCHEM_IUPAC_INCHIKEY>
CSOTYFMTMXQWLT-UHFFFAOYSA-N

> <PUBCHEM_XLOGP3_AA>
-2

> <PUBCHEM_EXACT_MASS>
1292.32632521

> <PUBCHEM_MOLECULAR_FORMULA>
C48H67N10O24P3S

> <PUBCHEM_MOLECULAR_WEIGHT>
1293.1

> <PUBCHEM_OPENEYE_CAN_SMILES>
CCCCCNC(=O)C(CC1=CC=C(C=C1)OC(C(=O)O)C(=O)SCCNC(=O)CCNC(=O)C(C(C)(C)COP(=O)(O)OP(=O)(O)OCC2C(C(C(O2)N3C=NC4=C(N=CN=C43)N)O)OP(=O)(O)O)O)NC(=O)NC(CC5=CC=CC=C5)C(=O)O

> <PUBCHEM_OPENEYE_ISO_SMILES>
CCCCCNC(=O)C(CC1=CC=C(C=C1)OC(C(=O)O)C(=O)SCCNC(=O)CCNC(=O)C(C(C)(C)COP(=O)(O)OP(=O)(O)OCC2C(C(C(O2)N3C=NC4=C(N=CN=C43)N)O)OP(=O)(O)O)O)NC(=O)NC(CC5=CC=CC=C5)C(=O)O

> <PUBCHEM_CACTVS_TPSA>
543

> <PUBCHEM_MONOISOTOPIC_WEIGHT>
1292.32632521

> <PUBCHEM_TOTAL_CHARGE>
0

> <PUBCHEM_HEAVY_ATOM_COUNT>
86

> <PUBCHEM_ATOM_DEF_STEREO_COUNT>
0

> <PUBCHEM_ATOM_UDEF_STEREO_COUNT>
8

> <PUBCHEM_BOND_DEF_STEREO_COUNT>
0

> <PUBCHEM_BOND_UDEF_STEREO_COUNT>
0

> <PUBCHEM_ISOTOPIC_ATOM_COUNT>
0

> <PUBCHEM_COMPONENT_COUNT>
1

> <PUBCHEM_CACTVS_TAUTO_COUNT>
-1

> <PUBCHEM_COORDINATE_TYPE>
1
5
255

> <PUBCHEM_BONDANNOTATIONS>
51  16  3
42  29  3
29  44  8
29  45  8
30  45  8
30  46  8
31  44  8
31  49  8
32  47  8
32  49  8
41  43  3
44  46  8
46  47  8
58  59  3
39  6  3
65  70  8
65  71  8
68  72  3
40  7  3
70  75  8
71  76  8
74  75  8
74  76  8
77  81  8
77  82  8
79  85  3
81  83  8
82  84  8
83  86  8
84  86  8

$$$$
155488862
  -OEChem-03012215082D

126129  0     1  0  0  0  0  0999 V2000
   21.4481    0.8743    0.0000 S   0  0  0  0  0  0  0  0  0  0  0  0
    5.3548    1.2759    0.0000 P   0  0  0  0  0  0  0  0  0  0  0  0
    8.4752    0.0361    0.0000 P   0  0  3  0  0  0  0  0  0  0  0  0
   10.1980    0.2142    0.0000 P   0  0  3  0  0  0  0  0  0  0  0  0
   21.0369    4.8531    0.0000 P   0  0  0  0  0  0  0  0  0  0  0  0
   26.6167    1.4085    0.0000 P   0  0  0  0  0  0  0  0  0  0  0  0
    5.9405   -1.7283    0.0000 O   0  0  0  0  0  0  0  0  0  0  0  0
    4.6844    0.5339    0.0000 O   0  0  0  0  0  0  0  0  0  0  0  0
    3.4026   -1.2239    0.0000 O   0  0  0  0  0  0  0  0  0  0  0  0
    7.6651   -0.5503    0.0000 O   0  0  0  0  0  0  0  0  0  0  0  0
    6.0252    2.0179    0.0000 O   0  0  0  0  0  0  0  0  0  0  0  0
    4.6128    1.9463    0.0000 O   0  0  0  0  0  0  0  0  0  0  0  0
    9.2852    0.6225    0.0000 O   0  0  0  0  0  0  0  0  0  0  0  0
    6.0968    0.6055    0.0000 O   0  0  0  0  0  0  0  0  0  0  0  0
    9.0615   -0.7739    0.0000 O   0  0  0  0  0  0  0  0  0  0  0  0
   11.1109   -0.1941    0.0000 O   0  0  0  0  0  0  0  0  0  0  0  0
    7.8888    0.8462    0.0000 O   0  0  0  0  0  0  0  0  0  0  0  0
   13.8494   -1.4191    0.0000 O   0  0  0  0  0  0  0  0  0  0  0  0
   10.6063    1.1270    0.0000 O   0  0  0  0  0  0  0  0  0  0  0  0
    9.7897   -0.6986    0.0000 O   0  0  0  0  0  0  0  0  0  0  0  0
   14.4538    1.1567    0.0000 O   0  0  0  0  0  0  0  0  0  0  0  0
   17.8996    1.5128    0.0000 O   0  0  0  0  0  0  0  0  0  0  0  0
   21.1397    3.8584    0.0000 O   0  0  0  0  0  0  0  0  0  0  0  0
   22.4638   -0.5287    0.0000 O   0  0  0  0  0  0  0  0  0  0  0  0
   25.4983    3.8062    0.0000 O   0  0  0  0  0  0  0  0  0  0  0  0
   20.9341    5.8478    0.0000 O   0  0  0  0  0  0  0  0  0  0  0  0
   20.0422    4.7503    0.0000 O   0  0  0  0  0  0  0  0  0  0  0  0
   27.4268    1.9949    0.0000 O   0  0  0  0  0  0  0  0  0  0  0  0
   27.2031    0.5985    0.0000 O   0  0  0  0  0  0  0  0  0  0  0  0
   22.0316    4.9559    0.0000 O   0  0  0  0  0  0  0  0  0  0  0  0
   26.0303    2.2185    0.0000 O   0  0  0  0  0  0  0  0  0  0  0  0
    4.6783   -2.9862    0.0000 N   0  0  0  0  0  0  0  0  0  0  0  0
    4.6783   -4.5957    0.0000 N   0  0  0  0  0  0  0  0  0  0  0  0
    2.8660   -2.7910    0.0000 N   0  0  0  0  0  0  0  0  0  0  0  0
    2.0000   -4.2909    0.0000 N   0  0  0  0  0  0  0  0  0  0  0  0
    2.8660   -5.7909    0.0000 N   0  0  0  0  0  0  0  0  0  0  0  0
   15.4695   -0.2463    0.0000 N   0  0  0  0  0  0  0  0  0  0  0  0
   18.9152    0.1098    0.0000 N   0  0  0  0  0  0  0  0  0  0  0  0
   23.0682    2.0470    0.0000 N   0  0  0  0  0  0  0  0  0  0  0  0
   23.5698    5.6175    0.0000 N   0  0  0  0  0  0  0  0  0  0  0  0
    4.9917   -0.4177    0.0000 C   0  0  3  0  0  0  0  0  0  0  0  0
    4.4026   -1.2257    0.0000 C   0  0  3  0  0  0  0  0  0  0  0  0
    5.9422   -0.7283    0.0000 C   0  0  3  0  0  0  0  0  0  0  0  0
    4.9889   -2.0357    0.0000 C   0  0  3  0  0  0  0  0  0  0  0  0
    6.7523   -0.1419    0.0000 C   0  0  0  0  0  0  0  0  0  0  0  0
    3.7320   -3.2910    0.0000 C   0  0  0  0  0  0  0  0  0  0  0  0
    5.2619   -3.7910    0.0000 C   0  0  0  0  0  0  0  0  0  0  0  0
    3.7320   -4.2909    0.0000 C   0  0  0  0  0  0  0  0  0  0  0  0
   12.8337   -0.0161    0.0000 C   0  0  0  0  0  0  0  0  0  0  0  0
    2.8660   -4.7909    0.0000 C   0  0  0  0  0  0  0  0  0  0  0  0
   13.7466   -0.4244    0.0000 C   0  0  3  0  0  0  0  0  0  0  0  0
   11.9209    0.3923    0.0000 C   0  0  0  0  0  0  0  0  0  0  0  0
    2.0000   -3.2910    0.0000 C   0  0  0  0  0  0  0  0  0  0  0  0
   13.2421    0.8968    0.0000 C   0  0  0  0  0  0  0  0  0  0  0  0
   12.4254   -0.9289    0.0000 C   0  0  0  0  0  0  0  0  0  0  0  0
   14.5566    0.1620    0.0000 C   0  0  0  0  0  0  0  0  0  0  0  0
   16.2795    0.3401    0.0000 C   0  0  0  0  0  0  0  0  0  0  0  0
   17.1923   -0.0682    0.0000 C   0  0  0  0  0  0  0  0  0  0  0  0
   18.0024    0.5181    0.0000 C   0  0  0  0  0  0  0  0  0  0  0  0
   19.7252    0.6962    0.0000 C   0  0  0  0  0  0  0  0  0  0  0  0
   20.6381    0.2879    0.0000 C   0  0  0  0  0  0  0  0  0  0  0  0
   22.3610    0.4660    0.0000 C   0  0  0  0  0  0  0  0  0  0  0  0
   23.7754    3.6281    0.0000 C   0  0  0  0  0  0  0  0  0  0  0  0
   22.8626    4.0364    0.0000 C   0  0  0  0  0  0  0  0  0  0  0  0
   23.8782    2.6334    0.0000 C   0  0  0  0  0  0  0  0  0  0  0  0
   23.1710    1.0523    0.0000 C   0  0  0  0  0  0  0  0  0  0  0  0
   24.5854    4.2145    0.0000 C   0  0  0  0  0  0  0  0  0  0  0  0
   22.0525    3.4501    0.0000 C   0  0  0  0  0  0  0  0  0  0  0  0
   24.4826    5.2092    0.0000 C   0  0  0  0  0  0  0  0  0  0  0  0
   22.7598    5.0312    0.0000 C   0  0  0  0  0  0  0  0  0  0  0  0
   24.0838    0.6440    0.0000 C   0  0  0  0  0  0  0  0  0  0  0  0
   25.2927    5.7956    0.0000 C   0  0  0  0  0  0  0  0  0  0  0  0
   24.8939    1.2304    0.0000 C   0  0  0  0  0  0  0  0  0  0  0  0
   25.8067    0.8221    0.0000 C   0  0  0  0  0  0  0  0  0  0  0  0
    5.4309    0.0200    0.0000 H   0  0  0  0  0  0  0  0  0  0  0  0
    4.1201   -1.7776    0.0000 H   0  0  0  0  0  0  0  0  0  0  0  0
    6.4942   -1.0108    0.0000 H   0  0  0  0  0  0  0  0  0  0  0  0
    5.4266   -2.4749    0.0000 H   0  0  0  0  0  0  0  0  0  0  0  0
    7.0999    0.3715    0.0000 H   0  0  0  0  0  0  0  0  0  0  0  0
    6.3070    0.2895    0.0000 H   0  0  0  0  0  0  0  0  0  0  0  0
    3.0935   -0.6865    0.0000 H   0  0  0  0  0  0  0  0  0  0  0  0
    5.8819   -3.7910    0.0000 H   0  0  0  0  0  0  0  0  0  0  0  0
   13.2444   -0.7879    0.0000 H   0  0  0  0  0  0  0  0  0  0  0  0
   12.2685    0.9057    0.0000 H   0  0  0  0  0  0  0  0  0  0  0  0
   11.4757    0.8237    0.0000 H   0  0  0  0  0  0  0  0  0  0  0  0
    5.8346    2.6079    0.0000 H   0  0  0  0  0  0  0  0  0  0  0  0
    4.0228    1.7558    0.0000 H   0  0  0  0  0  0  0  0  0  0  0  0
    1.4631   -2.9810    0.0000 H   0  0  0  0  0  0  0  0  0  0  0  0
   13.8080    0.6436    0.0000 H   0  0  0  0  0  0  0  0  0  0  0  0
   13.4952    1.4628    0.0000 H   0  0  0  0  0  0  0  0  0  0  0  0
   12.6761    1.1499    0.0000 H   0  0  0  0  0  0  0  0  0  0  0  0
   11.8595   -0.6757    0.0000 H   0  0  0  0  0  0  0  0  0  0  0  0
   12.1723   -1.4949    0.0000 H   0  0  0  0  0  0  0  0  0  0  0  0
   12.9914   -1.1820    0.0000 H   0  0  0  0  0  0  0  0  0  0  0  0
    8.8084   -1.3399    0.0000 H   0  0  0  0  0  0  0  0  0  0  0  0
    2.3291   -6.1010    0.0000 H   0  0  0  0  0  0  0  0  0  0  0  0
    3.4030   -6.1010    0.0000 H   0  0  0  0  0  0  0  0  0  0  0  0
   14.4154   -1.6722    0.0000 H   0  0  0  0  0  0  0  0  0  0  0  0
   15.5332   -0.8630    0.0000 H   0  0  0  0  0  0  0  0  0  0  0  0
   10.2428    1.6293    0.0000 H   0  0  0  0  0  0  0  0  0  0  0  0
   16.6271    0.8535    0.0000 H   0  0  0  0  0  0  0  0  0  0  0  0
   15.8342    0.7715    0.0000 H   0  0  0  0  0  0  0  0  0  0  0  0
   16.8447   -0.5816    0.0000 H   0  0  0  0  0  0  0  0  0  0  0  0
   17.6376   -0.4997    0.0000 H   0  0  0  0  0  0  0  0  0  0  0  0
   18.9789   -0.5069    0.0000 H   0  0  0  0  0  0  0  0  0  0  0  0
   20.0728    1.2096    0.0000 H   0  0  0  0  0  0  0  0  0  0  0  0
   19.2800    1.1277    0.0000 H   0  0  0  0  0  0  0  0  0  0  0  0
   20.2905   -0.2255    0.0000 H   0  0  0  0  0  0  0  0  0  0  0  0
   21.0833   -0.1436    0.0000 H   0  0  0  0  0  0  0  0  0  0  0  0
   24.1490    2.0757    0.0000 H   0  0  0  0  0  0  0  0  0  0  0  0
   24.4745    2.8033    0.0000 H   0  0  0  0  0  0  0  0  0  0  0  0
   21.7049    2.9367    0.0000 H   0  0  0  0  0  0  0  0  0  0  0  0
   22.4978    3.0186    0.0000 H   0  0  0  0  0  0  0  0  0  0  0  0
   22.1938    5.2843    0.0000 H   0  0  0  0  0  0  0  0  0  0  0  0
   24.1476    0.0273    0.0000 H   0  0  0  0  0  0  0  0  0  0  0  0
   25.6562    5.2934    0.0000 H   0  0  0  0  0  0  0  0  0  0  0  0
   25.7949    6.1592    0.0000 H   0  0  0  0  0  0  0  0  0  0  0  0
   24.9291    6.2978    0.0000 H   0  0  0  0  0  0  0  0  0  0  0  0
   24.8301    1.8471    0.0000 H   0  0  0  0  0  0  0  0  0  0  0  0
   25.4591    0.3087    0.0000 H   0  0  0  0  0  0  0  0  0  0  0  0
   26.2519    0.3906    0.0000 H   0  0  0  0  0  0  0  0  0  0  0  0
   26.0005    4.1698    0.0000 H   0  0  0  0  0  0  0  0  0  0  0  0
   20.3681    6.1010    0.0000 H   0  0  0  0  0  0  0  0  0  0  0  0
   19.7890    4.1843    0.0000 H   0  0  0  0  0  0  0  0  0  0  0  0
   27.9927    1.7417    0.0000 H   0  0  0  0  0  0  0  0  0  0  0  0
   26.9500    0.0325    0.0000 H   0  0  0  0  0  0  0  0  0  0  0  0
  1 61  1  0  0  0  0
  1 62  1  0  0  0  0
  2  8  1  0  0  0  0
  2 11  1  0  0  0  0
  2 12  1  0  0  0  0
  2 14  2  0  0  0  0
  3 10  1  0  0  0  0
  3 13  1  0  0  0  0
  3 15  1  0  0  0  0
  3 17  2  0  0  0  0
  4 13  1  0  0  0  0
  4 16  1  0  0  0  0
  4 19  1  0  0  0  0
  4 20  2  0  0  0  0
  5 23  1  0  0  0  0
  5 26  1  0  0  0  0
  5 27  1  0  0  0  0
  5 30  2  0  0  0  0
  6 28  1  0  0  0  0
  6 29  1  0  0  0  0
  6 31  2  0  0  0  0
  6 74  1  0  0  0  0
  7 43  1  0  0  0  0
  7 44  1  0  0  0  0
  8 41  1  0  0  0  0
  9 42  1  0  0  0  0
  9 81  1  0  0  0  0
 10 45  1  0  0  0  0
 11 86  1  0  0  0  0
 12 87  1  0  0  0  0
 15 95  1  0  0  0  0
 16 52  1  0  0  0  0
 18 51  1  0  0  0  0
 18 98  1  0  0  0  0
 19100  1  0  0  0  0
 21 56  2  0  0  0  0
 22 59  2  0  0  0  0
 23 68  1  0  0  0  0
 24 62  2  0  0  0  0
 25 67  1  0  0  0  0
 25122  1  0  0  0  0
 26123  1  0  0  0  0
 27124  1  0  0  0  0
 28125  1  0  0  0  0
 29126  1  0  0  0  0
 32 44  1  0  0  0  0
 32 46  1  0  0  0  0
 32 47  1  0  0  0  0
 33 47  2  0  0  0  0
 33 48  1  0  0  0  0
 34 46  2  0  0  0  0
 34 53  1  0  0  0  0
 35 50  1  0  0  0  0
 35 53  2  0  0  0  0
 36 50  1  0  0  0  0
 36 96  1  0  0  0  0
 36 97  1  0  0  0  0
 37 56  1  0  0  0  0
 37 57  1  0  0  0  0
 37 99  1  0  0  0  0
 38 59  1  0  0  0  0
 38 60  1  0  0  0  0
 38105  1  0  0  0  0
 39 65  1  0  0  0  0
 39 66  2  0  0  0  0
 40 69  2  0  0  0  0
 40 70  1  0  0  0  0
 41 42  1  0  0  0  0
 41 43  1  0  0  0  0
 41 75  1  0  0  0  0
 42 44  1  0  0  0  0
 42 76  1  0  0  0  0
 43 45  1  0  0  0  0
 43 77  1  0  0  0  0
 44 78  1  0  0  0  0
 45 79  1  0  0  0  0
 45 80  1  0  0  0  0
 46 48  1  0  0  0  0
 47 82  1  0  0  0  0
 48 50  2  0  0  0  0
 49 51  1  0  0  0  0
 49 52  1  0  0  0  0
 49 54  1  0  0  0  0
 49 55  1  0  0  0  0
 51 56  1  0  0  0  0
 51 83  1  0  0  0  0
 52 84  1  0  0  0  0
 52 85  1  0  0  0  0
 53 88  1  0  0  0  0
 54 89  1  0  0  0  0
 54 90  1  0  0  0  0
 54 91  1  0  0  0  0
 55 92  1  0  0  0  0
 55 93  1  0  0  0  0
 55 94  1  0  0  0  0
 57 58  1  0  0  0  0
 57101  1  0  0  0  0
 57102  1  0  0  0  0
 58 59  1  0  0  0  0
 58103  1  0  0  0  0
 58104  1  0  0  0  0
 60 61  1  0  0  0  0
 60106  1  0  0  0  0
 60107  1  0  0  0  0
 61108  1  0  0  0  0
 61109  1  0  0  0  0
 62 66  1  0  0  0  0
 63 64  1  0  0  0  0
 63 65  1  0  0  0  0
 63 67  2  0  0  0  0
 64 68  1  0  0  0  0
 64 70  2  0  0  0  0
 65110  1  0  0  0  0
 65111  1  0  0  0  0
 66 71  1  0  0  0  0
 67 69  1  0  0  0  0
 68112  1  0  0  0  0
 68113  1  0  0  0  0
 69 72  1  0  0  0  0
 70114  1  0  0  0  0
 71 73  2  0  0  0  0
 71115  1  0  0  0  0
 72116  1  0  0  0  0
 72117  1  0  0  0  0
 72118  1  0  0  0  0
 73 74  1  0  0  0  0
 73119  1  0  0  0  0
 74120  1  0  0  0  0
 74121  1  0  0  0  0
M  END
> <PUBCHEM_COMPOUND_CID>
155488862

> <PUBCHEM_COMPOUND_CANONICALIZED>
1

> <PUBCHEM_CACTVS_COMPLEXITY>
2240

> <PUBCHEM_CACTVS_HBOND_ACCEPTOR>
32

> <PUBCHEM_CACTVS_HBOND_DONOR>
14

> <PUBCHEM_CACTVS_ROTATABLE_BOND>
29

> <PUBCHEM_CACTVS_SUBSKEYS>
AAADcfB//gPAAAAAAAAAAAAAAAAAAWJAAAAsWAAAAAAAAFgB/gAAHgwQCCAADhzt3wav9r/MFxioQzd3dIaCgC0xcLAJ2KF9XJiLfnry2dOedAhv1hP72CfycAMPgAAAAAAAAAAAAAAAAAAAAAAAAAAAAA==

> <PUBCHEM_IUPAC_OPENEYE_NAME>
[(E)-5-[2-[3-[[4-[[[5-(6-aminopurin-9-yl)-4-hydroxy-3-phosphonooxy-tetrahydrofuran-2-yl]methoxy-hydroxy-phosphoryl]oxy-hydroxy-phosphoryl]oxy-2-hydroxy-3,3-dimethyl-butanoyl]amino]propanoylamino]ethylsulfanyl]-4-[[3-hydroxy-2-methyl-5-(phosphonooxymethyl)-4-pyridyl]methylimino]-5-oxo-pent-2-enyl]phosphonic acid

> <PUBCHEM_IUPAC_CAS_NAME>
[(E)-5-[2-[[3-[[4-[[[5-(6-aminopurin-9-yl)-4-hydroxy-3-phosphonooxy-2-oxolanyl]methoxy-hydroxyphosphoryl]oxy-hydroxyphosphoryl]oxy-2-hydroxy-3,3-dimethyl-1-oxobutyl]amino]-1-oxopropyl]amino]ethylthio]-4-[[3-hydroxy-2-methyl-5-(phosphonooxymethyl)-4-pyridinyl]methylimino]-5-oxopent-2-enyl]phosphonic acid

> <PUBCHEM_IUPAC_NAME_MARKUP>
[(<I>E</I>)-5-[2-[3-[[4-[[[5-(6-aminopurin-9-yl)-4-hydroxy-3-phosphonooxyoxolan-2-yl]methoxy-hydroxyphosphoryl]oxy-hydroxyphosphoryl]oxy-2-hydroxy-3,3-dimethylbutanoyl]amino]propanoylamino]ethylsulfanyl]-4-[[3-hydroxy-2-methyl-5-(phosphonooxymethyl)pyridin-4-yl]methylimino]-5-oxopent-2-enyl]phosphonic acid

> <PUBCHEM_IUPAC_NAME>
[(E)-5-[2-[3-[[4-[[[5-(6-aminopurin-9-yl)-4-hydroxy-3-phosphonooxyoxolan-2-yl]methoxy-hydroxyphosphoryl]oxy-hydroxyphosphoryl]oxy-2-hydroxy-3,3-dimethylbutanoyl]amino]propanoylamino]ethylsulfanyl]-4-[[3-hydroxy-2-methyl-5-(phosphonooxymethyl)pyridin-4-yl]methylimino]-5-oxopent-2-enyl]phosphonic acid

> <PUBCHEM_IUPAC_SYSTEMATIC_NAME>
[(E)-5-[2-[3-[[4-[[[5-(6-aminopurin-9-yl)-4-oxidanyl-3-phosphonooxy-oxolan-2-yl]methoxy-oxidanyl-phosphoryl]oxy-oxidanyl-phosphoryl]oxy-3,3-dimethyl-2-oxidanyl-butanoyl]amino]propanoylamino]ethylsulfanyl]-4-[[2-methyl-3-oxidanyl-5-(phosphonooxymethyl)pyridin-4-yl]methylimino]-5-oxidanylidene-pent-2-enyl]phosphonic acid

> <PUBCHEM_IUPAC_TRADITIONAL_NAME>
[(E)-5-[2-[3-[[4-[[(5-adenin-9-yl-4-hydroxy-3-phosphonooxy-tetrahydrofuran-2-yl)methoxy-hydroxy-phosphoryl]oxy-hydroxy-phosphoryl]oxy-2-hydroxy-3,3-dimethyl-butanoyl]amino]propanoylamino]ethylthio]-4-[[3-hydroxy-2-methyl-5-(phosphonooxymethyl)-4-pyridyl]methylimino]-5-keto-pent-2-enyl]phosphonic acid

> <PUBCHEM_IUPAC_INCHI>
InChI=1S/C34H52N9O25P5S/c1-18-25(45)20(19(11-38-18)13-63-70(53,54)55)12-39-21(5-4-9-69(50,51)52)33(49)74-10-8-36-23(44)6-7-37-31(48)28(47)34(2,3)15-65-73(61,62)68-72(59,60)64-14-22-27(67-71(56,57)58)26(46)32(66-22)43-17-42-24-29(35)40-16-41-30(24)43/h4-5,11,16-17,22,26-28,32,45-47H,6-10,12-15H2,1-3H3,(H,36,44)(H,37,48)(H,59,60)(H,61,62)(H2,35,40,41)(H2,50,51,52)(H2,53,54,55)(H2,56,57,58)/b5-4+,39-21?

> <PUBCHEM_IUPAC_INCHIKEY>
DLBSQDHSWQNLTK-QHLCLUAISA-N

> <PUBCHEM_XLOGP3_AA>
-8.6

> <PUBCHEM_EXACT_MASS>
1173.14831434

> <PUBCHEM_MOLECULAR_FORMULA>
C34H52N9O25P5S

> <PUBCHEM_MOLECULAR_WEIGHT>
1173.8

> <PUBCHEM_OPENEYE_CAN_SMILES>
CC1=NC=C(C(=C1O)CN=C(C=CCP(=O)(O)O)C(=O)SCCNC(=O)CCNC(=O)C(C(C)(C)COP(=O)(O)OP(=O)(O)OCC2C(C(C(O2)N3C=NC4=C(N=CN=C43)N)O)OP(=O)(O)O)O)COP(=O)(O)O

> <PUBCHEM_OPENEYE_ISO_SMILES>
CC1=NC=C(C(=C1O)CN=C(/C=C/CP(=O)(O)O)C(=O)SCCNC(=O)CCNC(=O)C(C(C)(C)COP(=O)(O)OP(=O)(O)OCC2C(C(C(O2)N3C=NC4=C(N=CN=C43)N)O)OP(=O)(O)O)O)COP(=O)(O)O

> <PUBCHEM_CACTVS_TPSA>
559

> <PUBCHEM_MONOISOTOPIC_WEIGHT>
1173.14831434

> <PUBCHEM_TOTAL_CHARGE>
0

> <PUBCHEM_HEAVY_ATOM_COUNT>
74

> <PUBCHEM_ATOM_DEF_STEREO_COUNT>
0

> <PUBCHEM_ATOM_UDEF_STEREO_COUNT>
5

> <PUBCHEM_BOND_DEF_STEREO_COUNT>
1

> <PUBCHEM_BOND_UDEF_STEREO_COUNT>
0

> <PUBCHEM_ISOTOPIC_ATOM_COUNT>
0

> <PUBCHEM_COMPONENT_COUNT>
1

> <PUBCHEM_CACTVS_TAUTO_COUNT>
-1

> <PUBCHEM_COORDINATE_TYPE>
1
5
255

> <PUBCHEM_BONDANNOTATIONS>
51  18  3
44  32  3
32  46  8
32  47  8
33  47  8
33  48  8
34  46  8
34  53  8
35  50  8
35  53  8
40  69  8
40  70  8
43  45  3
46  48  8
48  50  8
63  64  8
63  67  8
64  70  8
67  69  8
41  8  3
42  9  3

$$$$
155488896
  -OEChem-03012215082D

108112  0     1  0  0  0  0  0999 V2000
   24.8947    3.5009    0.0000 S   0  0  0  0  0  0  0  0  0  0  0  0
   21.4481    2.1507    0.0000 S   0  0  0  0  0  0  0  0  0  0  0  0
    5.3548    2.5523    0.0000 P   0  0  0  0  0  0  0  0  0  0  0  0
    8.4752    1.3125    0.0000 P   0  0  3  0  0  0  0  0  0  0  0  0
   10.1980    1.4906    0.0000 P   0  0  3  0  0  0  0  0  0  0  0  0
    5.9405   -0.4519    0.0000 O   0  0  0  0  0  0  0  0  0  0  0  0
    4.6844    1.8103    0.0000 O   0  0  0  0  0  0  0  0  0  0  0  0
    3.4026    0.0525    0.0000 O   0  0  0  0  0  0  0  0  0  0  0  0
    7.6651    0.7261    0.0000 O   0  0  0  0  0  0  0  0  0  0  0  0
    6.0252    3.2943    0.0000 O   0  0  0  0  0  0  0  0  0  0  0  0
    4.6128    3.2227    0.0000 O   0  0  0  0  0  0  0  0  0  0  0  0
    9.2852    1.8989    0.0000 O   0  0  0  0  0  0  0  0  0  0  0  0
    6.0968    1.8819    0.0000 O   0  0  0  0  0  0  0  0  0  0  0  0
   11.1109    1.0823    0.0000 O   0  0  0  0  0  0  0  0  0  0  0  0
    9.0615    0.5025    0.0000 O   0  0  0  0  0  0  0  0  0  0  0  0
    7.8888    2.1226    0.0000 O   0  0  0  0  0  0  0  0  0  0  0  0
   13.8494   -0.1427    0.0000 O   0  0  0  0  0  0  0  0  0  0  0  0
   10.6063    2.4034    0.0000 O   0  0  0  0  0  0  0  0  0  0  0  0
    9.7897    0.5778    0.0000 O   0  0  0  0  0  0  0  0  0  0  0  0
   14.4538    2.4331    0.0000 O   0  0  0  0  0  0  0  0  0  0  0  0
   27.2429    4.8246    0.0000 O   0  0  0  0  0  0  0  0  0  0  0  0
   17.8996    2.7892    0.0000 O   0  0  0  0  0  0  0  0  0  0  0  0
   27.1216    1.0338    0.0000 O   0  0  0  0  0  0  0  0  0  0  0  0
   25.4725    0.5042    0.0000 O   0  0  0  0  0  0  0  0  0  0  0  0
   23.0682    3.3234    0.0000 O   0  0  0  0  0  0  0  0  0  0  0  0
   22.4638    0.7477    0.0000 O   0  0  0  0  0  0  0  0  0  0  0  0
    4.6783   -1.7098    0.0000 N   0  0  0  0  0  0  0  0  0  0  0  0
    4.6783   -3.3193    0.0000 N   0  0  0  0  0  0  0  0  0  0  0  0
    2.8660   -1.5146    0.0000 N   0  0  0  0  0  0  0  0  0  0  0  0
    2.0000   -3.0146    0.0000 N   0  0  0  0  0  0  0  0  0  0  0  0
    2.8660   -4.5146    0.0000 N   0  0  0  0  0  0  0  0  0  0  0  0
   15.4695    1.0301    0.0000 N   0  0  0  0  0  0  0  0  0  0  0  0
   18.9152    1.3862    0.0000 N   0  0  0  0  0  0  0  0  0  0  0  0
   24.0838    1.9204    0.0000 N   0  0  0  0  0  0  0  0  0  0  0  0
    4.9917    0.8587    0.0000 C   0  0  3  0  0  0  0  0  0  0  0  0
    4.4026    0.0507    0.0000 C   0  0  3  0  0  0  0  0  0  0  0  0
    5.9422    0.5481    0.0000 C   0  0  3  0  0  0  0  0  0  0  0  0
    4.9889   -0.7593    0.0000 C   0  0  3  0  0  0  0  0  0  0  0  0
    6.7523    1.1345    0.0000 C   0  0  0  0  0  0  0  0  0  0  0  0
    3.7320   -2.0146    0.0000 C   0  0  0  0  0  0  0  0  0  0  0  0
    5.2619   -2.5146    0.0000 C   0  0  0  0  0  0  0  0  0  0  0  0
    3.7320   -3.0146    0.0000 C   0  0  0  0  0  0  0  0  0  0  0  0
   12.8337    1.2603    0.0000 C   0  0  0  0  0  0  0  0  0  0  0  0
    2.8660   -3.5146    0.0000 C   0  0  0  0  0  0  0  0  0  0  0  0
   13.7466    0.8520    0.0000 C   0  0  3  0  0  0  0  0  0  0  0  0
   11.9209    1.6687    0.0000 C   0  0  0  0  0  0  0  0  0  0  0  0
   13.2421    2.1732    0.0000 C   0  0  0  0  0  0  0  0  0  0  0  0
   12.4254    0.3475    0.0000 C   0  0  0  0  0  0  0  0  0  0  0  0
    2.0000   -2.0146    0.0000 C   0  0  0  0  0  0  0  0  0  0  0  0
   14.5566    1.4384    0.0000 C   0  0  0  0  0  0  0  0  0  0  0  0
   16.2795    1.6165    0.0000 C   0  0  0  0  0  0  0  0  0  0  0  0
   17.1923    1.2082    0.0000 C   0  0  0  0  0  0  0  0  0  0  0  0
   26.4263    2.9989    0.0000 C   0  0  0  0  0  0  0  0  0  0  0  0
   27.4210    3.1017    0.0000 C   0  0  0  0  0  0  0  0  0  0  0  0
   25.8399    3.8089    0.0000 C   0  0  0  0  0  0  0  0  0  0  0  0
   27.8293    4.0145    0.0000 C   0  0  0  0  0  0  0  0  0  0  0  0
   25.8385    2.1972    0.0000 C   0  0  0  0  0  0  0  0  0  0  0  0
   26.2482    4.7217    0.0000 C   0  0  0  0  0  0  0  0  0  0  0  0
   18.0024    1.7946    0.0000 C   0  0  0  0  0  0  0  0  0  0  0  0
   24.8939    2.5068    0.0000 C   0  0  0  0  0  0  0  0  0  0  0  0
   26.1442    1.2451    0.0000 C   0  0  0  0  0  0  0  0  0  0  0  0
   19.7252    1.9726    0.0000 C   0  0  0  0  0  0  0  0  0  0  0  0
   20.6381    1.5643    0.0000 C   0  0  0  0  0  0  0  0  0  0  0  0
   23.1710    2.3288    0.0000 C   0  0  0  0  0  0  0  0  0  0  0  0
   22.3610    1.7424    0.0000 C   0  0  0  0  0  0  0  0  0  0  0  0
    5.4309    1.2964    0.0000 H   0  0  0  0  0  0  0  0  0  0  0  0
    4.1201   -0.5012    0.0000 H   0  0  0  0  0  0  0  0  0  0  0  0
    6.4942    0.2656    0.0000 H   0  0  0  0  0  0  0  0  0  0  0  0
    5.4266   -1.1985    0.0000 H   0  0  0  0  0  0  0  0  0  0  0  0
    7.0999    1.6479    0.0000 H   0  0  0  0  0  0  0  0  0  0  0  0
    6.3070    1.5659    0.0000 H   0  0  0  0  0  0  0  0  0  0  0  0
    3.0935    0.5899    0.0000 H   0  0  0  0  0  0  0  0  0  0  0  0
    5.8819   -2.5146    0.0000 H   0  0  0  0  0  0  0  0  0  0  0  0
   13.2444    0.4885    0.0000 H   0  0  0  0  0  0  0  0  0  0  0  0
   12.2685    2.1821    0.0000 H   0  0  0  0  0  0  0  0  0  0  0  0
   11.4757    2.1001    0.0000 H   0  0  0  0  0  0  0  0  0  0  0  0
   13.8080    1.9200    0.0000 H   0  0  0  0  0  0  0  0  0  0  0  0
   13.4952    2.7392    0.0000 H   0  0  0  0  0  0  0  0  0  0  0  0
   12.6761    2.4263    0.0000 H   0  0  0  0  0  0  0  0  0  0  0  0
   11.8595    0.6007    0.0000 H   0  0  0  0  0  0  0  0  0  0  0  0
   12.1723   -0.2185    0.0000 H   0  0  0  0  0  0  0  0  0  0  0  0
   12.9914    0.0943    0.0000 H   0  0  0  0  0  0  0  0  0  0  0  0
    5.8346    3.8843    0.0000 H   0  0  0  0  0  0  0  0  0  0  0  0
    4.0228    3.0322    0.0000 H   0  0  0  0  0  0  0  0  0  0  0  0
    1.4631   -1.7046    0.0000 H   0  0  0  0  0  0  0  0  0  0  0  0
    8.8084   -0.0635    0.0000 H   0  0  0  0  0  0  0  0  0  0  0  0
    2.3291   -4.8246    0.0000 H   0  0  0  0  0  0  0  0  0  0  0  0
    3.4030   -4.8246    0.0000 H   0  0  0  0  0  0  0  0  0  0  0  0
   14.4154   -0.3958    0.0000 H   0  0  0  0  0  0  0  0  0  0  0  0
   15.5332    0.4134    0.0000 H   0  0  0  0  0  0  0  0  0  0  0  0
   16.6271    2.1299    0.0000 H   0  0  0  0  0  0  0  0  0  0  0  0
   15.8342    2.0479    0.0000 H   0  0  0  0  0  0  0  0  0  0  0  0
   10.2428    2.9056    0.0000 H   0  0  0  0  0  0  0  0  0  0  0  0
   16.8447    0.6948    0.0000 H   0  0  0  0  0  0  0  0  0  0  0  0
   17.6376    0.7767    0.0000 H   0  0  0  0  0  0  0  0  0  0  0  0
   27.3766    2.4833    0.0000 H   0  0  0  0  0  0  0  0  0  0  0  0
   28.0223    2.9506    0.0000 H   0  0  0  0  0  0  0  0  0  0  0  0
   28.3427    3.6669    0.0000 H   0  0  0  0  0  0  0  0  0  0  0  0
   28.2607    4.4598    0.0000 H   0  0  0  0  0  0  0  0  0  0  0  0
   26.2925    5.3402    0.0000 H   0  0  0  0  0  0  0  0  0  0  0  0
   25.6469    4.8728    0.0000 H   0  0  0  0  0  0  0  0  0  0  0  0
   18.9789    0.7695    0.0000 H   0  0  0  0  0  0  0  0  0  0  0  0
   24.1476    1.3037    0.0000 H   0  0  0  0  0  0  0  0  0  0  0  0
   20.0728    2.4860    0.0000 H   0  0  0  0  0  0  0  0  0  0  0  0
   19.2800    2.4041    0.0000 H   0  0  0  0  0  0  0  0  0  0  0  0
   20.2905    1.0509    0.0000 H   0  0  0  0  0  0  0  0  0  0  0  0
   21.0833    1.1328    0.0000 H   0  0  0  0  0  0  0  0  0  0  0  0
   27.3112    0.4434    0.0000 H   0  0  0  0  0  0  0  0  0  0  0  0
  1 55  1  0  0  0  0
  1 60  1  0  0  0  0
  2 63  1  0  0  0  0
  2 65  1  0  0  0  0
  3  7  1  0  0  0  0
  3 10  1  0  0  0  0
  3 11  1  0  0  0  0
  3 13  2  0  0  0  0
  4  9  1  0  0  0  0
  4 12  1  0  0  0  0
  4 15  1  0  0  0  0
  4 16  2  0  0  0  0
  5 12  1  0  0  0  0
  5 14  1  0  0  0  0
  5 18  1  0  0  0  0
  5 19  2  0  0  0  0
  6 37  1  0  0  0  0
  6 38  1  0  0  0  0
  7 35  1  0  0  0  0
  8 36  1  0  0  0  0
  8 72  1  0  0  0  0
  9 39  1  0  0  0  0
 10 83  1  0  0  0  0
 11 84  1  0  0  0  0
 14 46  1  0  0  0  0
 15 86  1  0  0  0  0
 17 45  1  0  0  0  0
 17 89  1  0  0  0  0
 18 93  1  0  0  0  0
 20 50  2  0  0  0  0
 21 56  1  0  0  0  0
 21 58  1  0  0  0  0
 22 59  2  0  0  0  0
 23 61  1  0  0  0  0
 23108  1  0  0  0  0
 24 61  2  0  0  0  0
 25 64  2  0  0  0  0
 26 65  2  0  0  0  0
 27 38  1  0  0  0  0
 27 40  1  0  0  0  0
 27 41  1  0  0  0  0
 28 41  2  0  0  0  0
 28 42  1  0  0  0  0
 29 40  2  0  0  0  0
 29 49  1  0  0  0  0
 30 44  1  0  0  0  0
 30 49  2  0  0  0  0
 31 44  1  0  0  0  0
 31 87  1  0  0  0  0
 31 88  1  0  0  0  0
 32 50  1  0  0  0  0
 32 51  1  0  0  0  0
 32 90  1  0  0  0  0
 33 59  1  0  0  0  0
 33 62  1  0  0  0  0
 33102  1  0  0  0  0
 34 60  1  0  0  0  0
 34 64  1  0  0  0  0
 34103  1  0  0  0  0
 35 36  1  0  0  0  0
 35 37  1  0  0  0  0
 35 66  1  0  0  0  0
 36 38  1  0  0  0  0
 36 67  1  0  0  0  0
 37 39  1  0  0  0  0
 37 68  1  0  0  0  0
 38 69  1  0  0  0  0
 39 70  1  0  0  0  0
 39 71  1  0  0  0  0
 40 42  1  0  0  0  0
 41 73  1  0  0  0  0
 42 44  2  0  0  0  0
 43 45  1  0  0  0  0
 43 46  1  0  0  0  0
 43 47  1  0  0  0  0
 43 48  1  0  0  0  0
 45 50  1  0  0  0  0
 45 74  1  0  0  0  0
 46 75  1  0  0  0  0
 46 76  1  0  0  0  0
 47 77  1  0  0  0  0
 47 78  1  0  0  0  0
 47 79  1  0  0  0  0
 48 80  1  0  0  0  0
 48 81  1  0  0  0  0
 48 82  1  0  0  0  0
 49 85  1  0  0  0  0
 51 52  1  0  0  0  0
 51 91  1  0  0  0  0
 51 92  1  0  0  0  0
 52 59  1  0  0  0  0
 52 94  1  0  0  0  0
 52 95  1  0  0  0  0
 53 54  1  0  0  0  0
 53 55  2  0  0  0  0
 53 57  1  0  0  0  0
 54 56  1  0  0  0  0
 54 96  1  0  0  0  0
 54 97  1  0  0  0  0
 55 58  1  0  0  0  0
 56 98  1  0  0  0  0
 56 99  1  0  0  0  0
 57 60  2  0  0  0  0
 57 61  1  0  0  0  0
 58100  1  0  0  0  0
 58101  1  0  0  0  0
 62 63  1  0  0  0  0
 62104  1  0  0  0  0
 62105  1  0  0  0  0
 63106  1  0  0  0  0
 63107  1  0  0  0  0
 64 65  1  0  0  0  0
M  END
> <PUBCHEM_COMPOUND_CID>
155488896

> <PUBCHEM_COMPOUND_CANONICALIZED>
1

> <PUBCHEM_CACTVS_COMPLEXITY>
1890

> <PUBCHEM_CACTVS_HBOND_ACCEPTOR>
27

> <PUBCHEM_CACTVS_HBOND_DONOR>
11

> <PUBCHEM_CACTVS_ROTATABLE_BOND>
23

> <PUBCHEM_CACTVS_SUBSKEYS>
AAADcfB7/gNgAAAAAAAAAAAAAAAAAWJEgAAsSAAAAAAAAFgB/gAAHgQQCCAADhzl3waH+b/MFxisQwfxfIKDgK11GLkB2LHoXNiLfjrg/PmeVYhv1gP7+Wb6NAoPgAAAAAAAAAAAAAAAAAAAAAAAAAAAAA==

> <PUBCHEM_IUPAC_OPENEYE_NAME>
2-[[2-[2-[3-[[4-[[[5-(6-aminopurin-9-yl)-4-hydroxy-3-phosphonooxy-tetrahydrofuran-2-yl]methoxy-hydroxy-phosphoryl]oxy-hydroxy-phosphoryl]oxy-2-hydroxy-3,3-dimethyl-butanoyl]amino]propanoylamino]ethylsulfanyl]-2-oxo-acetyl]amino]-5,7-dihydro-4H-thieno[2,3-c]pyran-3-carboxylic acid

> <PUBCHEM_IUPAC_CAS_NAME>
2-[[2-[2-[[3-[[4-[[[5-(6-aminopurin-9-yl)-4-hydroxy-3-phosphonooxy-2-oxolanyl]methoxy-hydroxyphosphoryl]oxy-hydroxyphosphoryl]oxy-2-hydroxy-3,3-dimethyl-1-oxobutyl]amino]-1-oxopropyl]amino]ethylthio]-1,2-dioxoethyl]amino]-5,7-dihydro-4H-thieno[2,3-c]pyran-3-carboxylic acid

> <PUBCHEM_IUPAC_NAME_MARKUP>
2-[[2-[2-[3-[[4-[[[5-(6-aminopurin-9-yl)-4-hydroxy-3-phosphonooxyoxolan-2-yl]methoxy-hydroxyphosphoryl]oxy-hydroxyphosphoryl]oxy-2-hydroxy-3,3-dimethylbutanoyl]amino]propanoylamino]ethylsulfanyl]-2-oxoacetyl]amino]-5,7-dihydro-4<I>H</I>-thieno[2,3-c]pyran-3-carboxylic acid

> <PUBCHEM_IUPAC_NAME>
2-[[2-[2-[3-[[4-[[[5-(6-aminopurin-9-yl)-4-hydroxy-3-phosphonooxyoxolan-2-yl]methoxy-hydroxyphosphoryl]oxy-hydroxyphosphoryl]oxy-2-hydroxy-3,3-dimethylbutanoyl]amino]propanoylamino]ethylsulfanyl]-2-oxoacetyl]amino]-5,7-dihydro-4H-thieno[2,3-c]pyran-3-carboxylic acid

> <PUBCHEM_IUPAC_SYSTEMATIC_NAME>
2-[[2-[2-[3-[[4-[[[5-(6-aminopurin-9-yl)-4-oxidanyl-3-phosphonooxy-oxolan-2-yl]methoxy-oxidanyl-phosphoryl]oxy-oxidanyl-phosphoryl]oxy-3,3-dimethyl-2-oxidanyl-butanoyl]amino]propanoylamino]ethylsulfanyl]-2-oxidanylidene-ethanoyl]amino]-5,7-dihydro-4H-thieno[2,3-c]pyran-3-carboxylic acid

> <PUBCHEM_IUPAC_TRADITIONAL_NAME>
2-[[2-[2-[3-[[4-[[(5-adenin-9-yl-4-hydroxy-3-phosphonooxy-tetrahydrofuran-2-yl)methoxy-hydroxy-phosphoryl]oxy-hydroxy-phosphoryl]oxy-2-hydroxy-3,3-dimethyl-butanoyl]amino]propanoylamino]ethylthio]-2-keto-acetyl]amino]-5,7-dihydro-4H-thieno[2,3-c]pyran-3-carboxylic acid

> <PUBCHEM_IUPAC_INCHI>
InChI=1S/C31H43N8O21P3S2/c1-31(2,22(42)25(43)34-5-3-17(40)33-6-8-64-30(47)26(44)38-27-18(29(45)46)14-4-7-55-10-16(14)65-27)11-57-63(53,54)60-62(51,52)56-9-15-21(59-61(48,49)50)20(41)28(58-15)39-13-37-19-23(32)35-12-36-24(19)39/h12-13,15,20-22,28,41-42H,3-11H2,1-2H3,(H,33,40)(H,34,43)(H,38,44)(H,45,46)(H,51,52)(H,53,54)(H2,32,35,36)(H2,48,49,50)

> <PUBCHEM_IUPAC_INCHIKEY>
FEEYBIOGPZJKKJ-UHFFFAOYSA-N

> <PUBCHEM_XLOGP3_AA>
-4.6

> <PUBCHEM_EXACT_MASS>
1020.11970375

> <PUBCHEM_MOLECULAR_FORMULA>
C31H43N8O21P3S2

> <PUBCHEM_MOLECULAR_WEIGHT>
1020.8

> <PUBCHEM_OPENEYE_CAN_SMILES>
CC(C)(COP(=O)(O)OP(=O)(O)OCC1C(C(C(O1)N2C=NC3=C(N=CN=C32)N)O)OP(=O)(O)O)C(C(=O)NCCC(=O)NCCSC(=O)C(=O)NC4=C(C5=C(S4)COCC5)C(=O)O)O

> <PUBCHEM_OPENEYE_ISO_SMILES>
CC(C)(COP(=O)(O)OP(=O)(O)OCC1C(C(C(O1)N2C=NC3=C(N=CN=C32)N)O)OP(=O)(O)O)C(C(=O)NCCC(=O)NCCSC(=O)C(=O)NC4=C(C5=C(S4)COCC5)C(=O)O)O

> <PUBCHEM_CACTVS_TPSA>
493

> <PUBCHEM_MONOISOTOPIC_WEIGHT>
1020.11970375

> <PUBCHEM_TOTAL_CHARGE>
0

> <PUBCHEM_HEAVY_ATOM_COUNT>
65

> <PUBCHEM_ATOM_DEF_STEREO_COUNT>
0

> <PUBCHEM_ATOM_UDEF_STEREO_COUNT>
5

> <PUBCHEM_BOND_DEF_STEREO_COUNT>
0

> <PUBCHEM_BOND_UDEF_STEREO_COUNT>
0

> <PUBCHEM_ISOTOPIC_ATOM_COUNT>
0

> <PUBCHEM_COMPONENT_COUNT>
1

> <PUBCHEM_CACTVS_TAUTO_COUNT>
-1

> <PUBCHEM_COORDINATE_TYPE>
1
5
255

> <PUBCHEM_BONDANNOTATIONS>
1  55  8
1  60  8
45  17  3
38  27  3
27  40  8
27  41  8
28  41  8
28  42  8
29  40  8
29  49  8
30  44  8
30  49  8
37  39  3
40  42  8
42  44  8
53  55  8
53  57  8
57  60  8
35  7  3
36  8  3

$$$$
155488899
  -OEChem-03012215082D

144150  0     1  0  0  0  0  0999 V2000
   16.1739   -6.6124    0.0000 S   0  0  0  0  0  0  0  0  0  0  0  0
    8.8104    9.5294    0.0000 P   0  0  0  0  0  0  0  0  0  0  0  0
   10.1117    4.8876    0.0000 P   0  0  3  0  0  0  0  0  0  0  0  0
   20.5040   -5.1124    0.0000 P   0  0  3  0  0  0  0  0  0  0  0  0
   19.6380   -6.6124    0.0000 P   0  0  3  0  0  0  0  0  0  0  0  0
   10.9777    3.3876    0.0000 P   0  0  3  0  0  0  0  0  0  0  0  0
    7.4661    6.4809    0.0000 O   0  0  0  0  0  0  0  0  0  0  0  0
   23.1496   -3.5191    0.0000 O   0  0  0  0  0  0  0  0  0  0  0  0
    9.0183    8.5512    0.0000 O   0  0  0  0  0  0  0  0  0  0  0  0
    6.8902    9.0036    0.0000 O   0  0  0  0  0  0  0  0  0  0  0  0
   23.7255   -0.9964    0.0000 O   0  0  0  0  0  0  0  0  0  0  0  0
   21.5975   -1.4488    0.0000 O   0  0  0  0  0  0  0  0  0  0  0  0
    9.2457    5.3876    0.0000 O   0  0  0  0  0  0  0  0  0  0  0  0
   21.3700   -4.6124    0.0000 O   0  0  0  0  0  0  0  0  0  0  0  0
   17.9059   -7.6124    0.0000 O   0  0  0  0  0  0  0  0  0  0  0  0
   19.6380   -7.6124    0.0000 O   0  0  0  0  0  0  0  0  0  0  0  0
    8.6024   10.5075    0.0000 O   0  0  0  0  0  0  0  0  0  0  0  0
    9.7885    9.7373    0.0000 O   0  0  0  0  0  0  0  0  0  0  0  0
    7.8322    9.3215    0.0000 O   0  0  0  0  0  0  0  0  0  0  0  0
   17.9059  -10.6124    0.0000 O   0  0  0  0  0  0  0  0  0  0  0  0
   10.9777    4.3876    0.0000 O   0  0  0  0  0  0  0  0  0  0  0  0
   19.6380   -9.6124    0.0000 O   0  0  0  0  0  0  0  0  0  0  0  0
   16.1739   -9.6124    0.0000 O   0  0  0  0  0  0  0  0  0  0  0  0
   19.6380   -5.6124    0.0000 O   0  0  0  0  0  0  0  0  0  0  0  0
   10.6117    5.7536    0.0000 O   0  0  0  0  0  0  0  0  0  0  0  0
    9.6117    4.0216    0.0000 O   0  0  0  0  0  0  0  0  0  0  0  0
   10.9777    2.3876    0.0000 O   0  0  0  0  0  0  0  0  0  0  0  0
   20.0040   -4.2464    0.0000 O   0  0  0  0  0  0  0  0  0  0  0  0
   21.0040   -5.9784    0.0000 O   0  0  0  0  0  0  0  0  0  0  0  0
   28.1135   -2.3714    0.0000 O   0  0  0  0  0  0  0  0  0  0  0  0
   20.6380   -6.6124    0.0000 O   0  0  0  0  0  0  0  0  0  0  0  0
   10.9777   -0.6124    0.0000 O   0  0  0  0  0  0  0  0  0  0  0  0
   15.3079   -8.1124    0.0000 O   0  0  0  0  0  0  0  0  0  0  0  0
   18.6380   -6.6124    0.0000 O   0  0  0  0  0  0  0  0  0  0  0  0
    9.9777    3.3876    0.0000 O   0  0  0  0  0  0  0  0  0  0  0  0
   11.9777    3.3876    0.0000 O   0  0  0  0  0  0  0  0  0  0  0  0
   13.5758   -0.1124    0.0000 O   0  0  0  0  0  0  0  0  0  0  0  0
   15.3079   -3.1124    0.0000 O   0  0  0  0  0  0  0  0  0  0  0  0
    5.8025    7.1195    0.0000 N   0  0  0  0  0  0  0  0  0  0  0  0
   24.8133   -2.8805    0.0000 N   0  0  0  0  0  0  0  0  0  0  0  0
    4.3333    6.4623    0.0000 N   0  0  0  0  0  0  0  0  0  0  0  0
    5.2407    8.8535    0.0000 N   0  0  0  0  0  0  0  0  0  0  0  0
   26.2824   -3.5377    0.0000 N   0  0  0  0  0  0  0  0  0  0  0  0
   25.3750   -1.1465    0.0000 N   0  0  0  0  0  0  0  0  0  0  0  0
    3.5179    9.0316    0.0000 N   0  0  0  0  0  0  0  0  0  0  0  0
   27.0979   -0.9684    0.0000 N   0  0  0  0  0  0  0  0  0  0  0  0
    2.5022    7.6286    0.0000 N   0  0  0  0  0  0  0  0  0  0  0  0
   26.0822    0.4346    0.0000 N   0  0  0  0  0  0  0  0  0  0  0  0
   12.7098   -1.6124    0.0000 N   0  0  0  0  0  0  0  0  0  0  0  0
   14.4418   -4.6124    0.0000 N   0  0  0  0  0  0  0  0  0  0  0  0
    8.2751    7.8821    0.0000 C   0  0  3  0  0  0  0  0  0  0  0  0
    7.2970    8.0900    0.0000 C   0  0  3  0  0  0  0  0  0  0  0  0
    8.3797    6.8876    0.0000 C   0  0  3  0  0  0  0  0  0  0  0  0
    6.7970    7.2240    0.0000 C   0  0  3  0  0  0  0  0  0  0  0  0
   23.3187   -1.9100    0.0000 C   0  0  3  0  0  0  0  0  0  0  0  0
   22.3406   -2.1179    0.0000 C   0  0  3  0  0  0  0  0  0  0  0  0
   23.8187   -2.7760    0.0000 C   0  0  3  0  0  0  0  0  0  0  0  0
   22.2361   -3.1124    0.0000 C   0  0  3  0  0  0  0  0  0  0  0  0
    9.2457    6.3876    0.0000 C   0  0  0  0  0  0  0  0  0  0  0  0
   21.3700   -3.6124    0.0000 C   0  0  0  0  0  0  0  0  0  0  0  0
    5.1379    7.8588    0.0000 C   0  0  0  0  0  0  0  0  0  0  0  0
    5.3062    6.2582    0.0000 C   0  0  0  0  0  0  0  0  0  0  0  0
   25.4778   -2.1412    0.0000 C   0  0  0  0  0  0  0  0  0  0  0  0
    4.2251    7.4505    0.0000 C   0  0  0  0  0  0  0  0  0  0  0  0
   25.3096   -3.7418    0.0000 C   0  0  0  0  0  0  0  0  0  0  0  0
   17.9059   -9.6124    0.0000 C   0  0  3  0  0  0  0  0  0  0  0  0
   18.7720   -9.1124    0.0000 C   0  0  3  0  0  0  0  0  0  0  0  0
   17.0399   -9.1124    0.0000 C   0  0  3  0  0  0  0  0  0  0  0  0
   18.7720   -8.1124    0.0000 C   0  0  3  0  0  0  0  0  0  0  0  0
   26.3906   -2.5495    0.0000 C   0  0  0  0  0  0  0  0  0  0  0  0
   17.0399   -8.1124    0.0000 C   0  0  3  0  0  0  0  0  0  0  0  0
    3.4151    8.0369    0.0000 C   0  0  0  0  0  0  0  0  0  0  0  0
   11.8438    0.8876    0.0000 C   0  0  0  0  0  0  0  0  0  0  0  0
   27.2007   -1.9631    0.0000 C   0  0  0  0  0  0  0  0  0  0  0  0
    4.4307    9.4399    0.0000 C   0  0  0  0  0  0  0  0  0  0  0  0
   16.1739   -7.6124    0.0000 C   0  0  0  0  0  0  0  0  0  0  0  0
   26.1850   -0.5601    0.0000 C   0  0  0  0  0  0  0  0  0  0  0  0
   11.8438    1.8876    0.0000 C   0  0  0  0  0  0  0  0  0  0  0  0
   11.8438   -0.1124    0.0000 C   0  0  3  0  0  0  0  0  0  0  0  0
   10.8438    0.8876    0.0000 C   0  0  0  0  0  0  0  0  0  0  0  0
   12.8438    0.8876    0.0000 C   0  0  0  0  0  0  0  0  0  0  0  0
   12.7098   -0.6124    0.0000 C   0  0  0  0  0  0  0  0  0  0  0  0
   15.3079   -6.1124    0.0000 C   0  0  0  0  0  0  0  0  0  0  0  0
   15.3079   -5.1124    0.0000 C   0  0  0  0  0  0  0  0  0  0  0  0
   13.5758   -2.1124    0.0000 C   0  0  0  0  0  0  0  0  0  0  0  0
   13.5758   -3.1124    0.0000 C   0  0  0  0  0  0  0  0  0  0  0  0
   14.4418   -3.6124    0.0000 C   0  0  0  0  0  0  0  0  0  0  0  0
    8.8540    7.6599    0.0000 H   0  0  0  0  0  0  0  0  0  0  0  0
    7.6872    8.5719    0.0000 H   0  0  0  0  0  0  0  0  0  0  0  0
    8.3472    6.2684    0.0000 H   0  0  0  0  0  0  0  0  0  0  0  0
    6.5748    6.6452    0.0000 H   0  0  0  0  0  0  0  0  0  0  0  0
   22.9286   -1.4281    0.0000 H   0  0  0  0  0  0  0  0  0  0  0  0
   22.5011   -1.5190    0.0000 H   0  0  0  0  0  0  0  0  0  0  0  0
   24.1564   -2.2560    0.0000 H   0  0  0  0  0  0  0  0  0  0  0  0
   22.2685   -3.7316    0.0000 H   0  0  0  0  0  0  0  0  0  0  0  0
    9.8563    6.2799    0.0000 H   0  0  0  0  0  0  0  0  0  0  0  0
    9.4577    6.9702    0.0000 H   0  0  0  0  0  0  0  0  0  0  0  0
   21.1580   -3.0298    0.0000 H   0  0  0  0  0  0  0  0  0  0  0  0
   20.7595   -3.7201    0.0000 H   0  0  0  0  0  0  0  0  0  0  0  0
    7.2547    9.5052    0.0000 H   0  0  0  0  0  0  0  0  0  0  0  0
    5.5593    5.6922    0.0000 H   0  0  0  0  0  0  0  0  0  0  0  0
   23.3611   -0.4948    0.0000 H   0  0  0  0  0  0  0  0  0  0  0  0
   21.7264   -0.8423    0.0000 H   0  0  0  0  0  0  0  0  0  0  0  0
   25.0564   -4.3078    0.0000 H   0  0  0  0  0  0  0  0  0  0  0  0
   17.3690   -9.9224    0.0000 H   0  0  0  0  0  0  0  0  0  0  0  0
   18.7720   -9.7324    0.0000 H   0  0  0  0  0  0  0  0  0  0  0  0
   16.5030   -8.8024    0.0000 H   0  0  0  0  0  0  0  0  0  0  0  0
   19.3089   -8.4224    0.0000 H   0  0  0  0  0  0  0  0  0  0  0  0
   17.0399   -7.4924    0.0000 H   0  0  0  0  0  0  0  0  0  0  0  0
    9.0632   10.9224    0.0000 H   0  0  0  0  0  0  0  0  0  0  0  0
   10.2034    9.2766    0.0000 H   0  0  0  0  0  0  0  0  0  0  0  0
    4.4944   10.0566    0.0000 H   0  0  0  0  0  0  0  0  0  0  0  0
   12.4543    1.7799    0.0000 H   0  0  0  0  0  0  0  0  0  0  0  0
   12.0558    2.4702    0.0000 H   0  0  0  0  0  0  0  0  0  0  0  0
   18.4429  -10.9224    0.0000 H   0  0  0  0  0  0  0  0  0  0  0  0
   11.3068    0.1976    0.0000 H   0  0  0  0  0  0  0  0  0  0  0  0
   20.1749   -9.3024    0.0000 H   0  0  0  0  0  0  0  0  0  0  0  0
   16.1739  -10.2324    0.0000 H   0  0  0  0  0  0  0  0  0  0  0  0
   27.6001   -0.6049    0.0000 H   0  0  0  0  0  0  0  0  0  0  0  0
   10.8438    1.5076    0.0000 H   0  0  0  0  0  0  0  0  0  0  0  0
   10.2238    0.8876    0.0000 H   0  0  0  0  0  0  0  0  0  0  0  0
   10.8438    0.2676    0.0000 H   0  0  0  0  0  0  0  0  0  0  0  0
   12.8438    0.2676    0.0000 H   0  0  0  0  0  0  0  0  0  0  0  0
   13.4638    0.8876    0.0000 H   0  0  0  0  0  0  0  0  0  0  0  0
   12.8438    1.5076    0.0000 H   0  0  0  0  0  0  0  0  0  0  0  0
    2.0000    7.9921    0.0000 H   0  0  0  0  0  0  0  0  0  0  0  0
    2.4385    7.0118    0.0000 H   0  0  0  0  0  0  0  0  0  0  0  0
   11.2317    5.7536    0.0000 H   0  0  0  0  0  0  0  0  0  0  0  0
   19.3840   -4.2464    0.0000 H   0  0  0  0  0  0  0  0  0  0  0  0
   26.5844    0.7981    0.0000 H   0  0  0  0  0  0  0  0  0  0  0  0
   25.5163    0.6877    0.0000 H   0  0  0  0  0  0  0  0  0  0  0  0
   14.6973   -6.0047    0.0000 H   0  0  0  0  0  0  0  0  0  0  0  0
   15.0958   -6.6950    0.0000 H   0  0  0  0  0  0  0  0  0  0  0  0
   20.9480   -7.1493    0.0000 H   0  0  0  0  0  0  0  0  0  0  0  0
   10.4408   -0.3024    0.0000 H   0  0  0  0  0  0  0  0  0  0  0  0
   12.1729   -1.9224    0.0000 H   0  0  0  0  0  0  0  0  0  0  0  0
   15.9184   -5.2201    0.0000 H   0  0  0  0  0  0  0  0  0  0  0  0
   15.5199   -4.5298    0.0000 H   0  0  0  0  0  0  0  0  0  0  0  0
    9.6677    2.8507    0.0000 H   0  0  0  0  0  0  0  0  0  0  0  0
   14.1864   -2.2201    0.0000 H   0  0  0  0  0  0  0  0  0  0  0  0
   13.7879   -1.5298    0.0000 H   0  0  0  0  0  0  0  0  0  0  0  0
   12.9652   -3.0047    0.0000 H   0  0  0  0  0  0  0  0  0  0  0  0
   13.3638   -3.6950    0.0000 H   0  0  0  0  0  0  0  0  0  0  0  0
   13.9049   -4.9224    0.0000 H   0  0  0  0  0  0  0  0  0  0  0  0
  1 76  1  0  0  0  0
  1 83  1  0  0  0  0
  2  9  1  0  0  0  0
  2 17  1  0  0  0  0
  2 18  1  0  0  0  0
  2 19  2  0  0  0  0
  3 13  1  0  0  0  0
  3 21  1  0  0  0  0
  3 25  1  0  0  0  0
  3 26  2  0  0  0  0
  4 14  1  0  0  0  0
  4 24  1  0  0  0  0
  4 28  1  0  0  0  0
  4 29  2  0  0  0  0
  5 16  1  0  0  0  0
  5 24  1  0  0  0  0
  5 31  1  0  0  0  0
  5 34  2  0  0  0  0
  6 21  1  0  0  0  0
  6 27  1  0  0  0  0
  6 35  1  0  0  0  0
  6 36  2  0  0  0  0
  7 53  1  0  0  0  0
  7 54  1  0  0  0  0
  8 57  1  0  0  0  0
  8 58  1  0  0  0  0
  9 51  1  0  0  0  0
 10 52  1  0  0  0  0
 10100  1  0  0  0  0
 11 55  1  0  0  0  0
 11102  1  0  0  0  0
 12 56  1  0  0  0  0
 12103  1  0  0  0  0
 13 59  1  0  0  0  0
 14 60  1  0  0  0  0
 15 69  1  0  0  0  0
 15 71  1  0  0  0  0
 16 69  1  0  0  0  0
 17110  1  0  0  0  0
 18111  1  0  0  0  0
 20 66  1  0  0  0  0
 20115  1  0  0  0  0
 22 67  1  0  0  0  0
 22117  1  0  0  0  0
 23 68  1  0  0  0  0
 23118  1  0  0  0  0
 25128  1  0  0  0  0
 27 78  1  0  0  0  0
 28129  1  0  0  0  0
 30 74  2  0  0  0  0
 31134  1  0  0  0  0
 32 79  1  0  0  0  0
 32135  1  0  0  0  0
 33 76  2  0  0  0  0
 35139  1  0  0  0  0
 37 82  2  0  0  0  0
 38 87  2  0  0  0  0
 39 54  1  0  0  0  0
 39 61  1  0  0  0  0
 39 62  1  0  0  0  0
 40 57  1  0  0  0  0
 40 63  1  0  0  0  0
 40 65  1  0  0  0  0
 41 62  2  0  0  0  0
 41 64  1  0  0  0  0
 42 61  2  0  0  0  0
 42 75  1  0  0  0  0
 43 65  2  0  0  0  0
 43 70  1  0  0  0  0
 44 63  1  0  0  0  0
 44 77  2  0  0  0  0
 45 72  1  0  0  0  0
 45 75  2  0  0  0  0
 46 74  1  0  0  0  0
 46 77  1  0  0  0  0
 46119  1  0  0  0  0
 47 72  1  0  0  0  0
 47126  1  0  0  0  0
 47127  1  0  0  0  0
 48 77  1  0  0  0  0
 48130  1  0  0  0  0
 48131  1  0  0  0  0
 49 82  1  0  0  0  0
 49 85  1  0  0  0  0
 49136  1  0  0  0  0
 50 84  1  0  0  0  0
 50 87  1  0  0  0  0
 50144  1  0  0  0  0
 51 52  1  0  0  0  0
 51 53  1  0  0  0  0
 51 88  1  0  0  0  0
 52 54  1  0  0  0  0
 52 89  1  0  0  0  0
 53 59  1  0  0  0  0
 53 90  1  0  0  0  0
 54 91  1  0  0  0  0
 55 56  1  0  0  0  0
 55 57  1  0  0  0  0
 55 92  1  0  0  0  0
 56 58  1  0  0  0  0
 56 93  1  0  0  0  0
 57 94  1  0  0  0  0
 58 60  1  0  0  0  0
 58 95  1  0  0  0  0
 59 96  1  0  0  0  0
 59 97  1  0  0  0  0
 60 98  1  0  0  0  0
 60 99  1  0  0  0  0
 61 64  1  0  0  0  0
 62101  1  0  0  0  0
 63 70  2  0  0  0  0
 64 72  2  0  0  0  0
 65104  1  0  0  0  0
 66 67  1  0  0  0  0
 66 68  1  0  0  0  0
 66105  1  0  0  0  0
 67 69  1  0  0  0  0
 67106  1  0  0  0  0
 68 71  1  0  0  0  0
 68107  1  0  0  0  0
 69108  1  0  0  0  0
 70 74  1  0  0  0  0
 71 76  1  0  0  0  0
 71109  1  0  0  0  0
 73 78  1  0  0  0  0
 73 79  1  0  0  0  0
 73 80  1  0  0  0  0
 73 81  1  0  0  0  0
 75112  1  0  0  0  0
 78113  1  0  0  0  0
 78114  1  0  0  0  0
 79 82  1  0  0  0  0
 79116  1  0  0  0  0
 80120  1  0  0  0  0
 80121  1  0  0  0  0
 80122  1  0  0  0  0
 81123  1  0  0  0  0
 81124  1  0  0  0  0
 81125  1  0  0  0  0
 83 84  1  0  0  0  0
 83132  1  0  0  0  0
 83133  1  0  0  0  0
 84137  1  0  0  0  0
 84138  1  0  0  0  0
 85 86  1  0  0  0  0
 85140  1  0  0  0  0
 85141  1  0  0  0  0
 86 87  1  0  0  0  0
 86142  1  0  0  0  0
 86143  1  0  0  0  0
M  END
> <PUBCHEM_COMPOUND_CID>
155488899

> <PUBCHEM_COMPOUND_CANONICALIZED>
1

> <PUBCHEM_CACTVS_COMPLEXITY>
2770

> <PUBCHEM_CACTVS_HBOND_ACCEPTOR>
39

> <PUBCHEM_CACTVS_HBOND_DONOR>
18

> <PUBCHEM_CACTVS_ROTATABLE_BOND>
29

> <PUBCHEM_CACTVS_SUBSKEYS>
AAADcfB//gPAAAAAAAAAAAAAAAAAAWLEiQAsSIAAAAAAAFgB/gAAHgQQCCAADhz11weH+L/MFxioQQdxdIKAgC0XELABUKHoVFCTWB5gyGQeRIgPNwL3AGH6fAZJAAAAAAAAAAAAAAAAAAAAAAAAAAAAAA==

> <PUBCHEM_IUPAC_OPENEYE_NAME>
S-[2-[3-[[4-[[[5-(6-aminopurin-9-yl)-4-hydroxy-3-phosphonooxy-tetrahydrofuran-2-yl]methoxy-hydroxy-phosphoryl]oxy-hydroxy-phosphoryl]oxy-2-hydroxy-3,3-dimethyl-butanoyl]amino]propanoylamino]ethyl] 6-[[[5-(2-amino-6-oxo-1H-purin-9-yl)-3,4-dihydroxy-tetrahydrofuran-2-yl]methoxy-hydroxy-phosphoryl]oxy-hydroxy-phosphoryl]oxy-3,4,5-trihydroxy-tetrahydropyran-2-carbothioate

> <PUBCHEM_IUPAC_CAS_NAME>
6-[[[5-(2-amino-6-oxo-1H-purin-9-yl)-3,4-dihydroxy-2-oxolanyl]methoxy-hydroxyphosphoryl]oxy-hydroxyphosphoryl]oxy-3,4,5-trihydroxy-2-oxanecarbothioic acid S-[2-[[3-[[4-[[[5-(6-aminopurin-9-yl)-4-hydroxy-3-phosphonooxy-2-oxolanyl]methoxy-hydroxyphosphoryl]oxy-hydroxyphosphoryl]oxy-2-hydroxy-3,3-dimethyl-1-oxobutyl]amino]-1-oxopropyl]amino]ethyl] ester

> <PUBCHEM_IUPAC_NAME_MARKUP>
<I>S</I>-[2-[3-[[4-[[[5-(6-aminopurin-9-yl)-4-hydroxy-3-phosphonooxyoxolan-2-yl]methoxy-hydroxyphosphoryl]oxy-hydroxyphosphoryl]oxy-2-hydroxy-3,3-dimethylbutanoyl]amino]propanoylamino]ethyl] 6-[[[5-(2-amino-6-oxo-1<I>H</I>-purin-9-yl)-3,4-dihydroxyoxolan-2-yl]methoxy-hydroxyphosphoryl]oxy-hydroxyphosphoryl]oxy-3,4,5-trihydroxyoxane-2-carbothioate

> <PUBCHEM_IUPAC_NAME>
S-[2-[3-[[4-[[[5-(6-aminopurin-9-yl)-4-hydroxy-3-phosphonooxyoxolan-2-yl]methoxy-hydroxyphosphoryl]oxy-hydroxyphosphoryl]oxy-2-hydroxy-3,3-dimethylbutanoyl]amino]propanoylamino]ethyl] 6-[[[5-(2-amino-6-oxo-1H-purin-9-yl)-3,4-dihydroxyoxolan-2-yl]methoxy-hydroxyphosphoryl]oxy-hydroxyphosphoryl]oxy-3,4,5-trihydroxyoxane-2-carbothioate

> <PUBCHEM_IUPAC_SYSTEMATIC_NAME>
S-[2-[3-[[4-[[[5-(6-aminopurin-9-yl)-4-oxidanyl-3-phosphonooxy-oxolan-2-yl]methoxy-oxidanyl-phosphoryl]oxy-oxidanyl-phosphoryl]oxy-3,3-dimethyl-2-oxidanyl-butanoyl]amino]propanoylamino]ethyl] 6-[[[5-(2-azanyl-6-oxidanylidene-1H-purin-9-yl)-3,4-bis(oxidanyl)oxolan-2-yl]methoxy-oxidanyl-phosphoryl]oxy-oxidanyl-phosphoryl]oxy-3,4,5-tris(oxidanyl)oxane-2-carbothioate

> <PUBCHEM_IUPAC_TRADITIONAL_NAME>
6-[[[5-(2-amino-6-keto-1H-purin-9-yl)-3,4-dihydroxy-tetrahydrofuran-2-yl]methoxy-hydroxy-phosphoryl]oxy-hydroxy-phosphoryl]oxy-3,4,5-trihydroxy-tetrahydropyran-2-carbothioic acid S-[2-[3-[[4-[[(5-adenin-9-yl-4-hydroxy-3-phosphonooxy-tetrahydrofuran-2-yl)methoxy-hydroxy-phosphoryl]oxy-hydroxy-phosphoryl]oxy-2-hydroxy-3,3-dimethyl-butanoyl]amino]propanoylamino]ethyl] ester

> <PUBCHEM_IUPAC_INCHI>
InChI=1S/C37H57N12O32P5S/c1-37(2,9-74-85(68,69)80-83(64,65)73-8-14-24(78-82(61,62)63)23(56)33(76-14)48-11-44-16-27(38)42-10-43-28(16)48)26(57)31(59)41-4-3-15(50)40-5-6-87-34(60)25-20(53)19(52)22(55)35(77-25)79-86(70,71)81-84(66,67)72-7-13-18(51)21(54)32(75-13)49-12-45-17-29(49)46-36(39)47-30(17)58/h10-14,18-26,32-33,35,51-57H,3-9H2,1-2H3,(H,40,50)(H,41,59)(H,64,65)(H,66,67)(H,68,69)(H,70,71)(H2,38,42,43)(H2,61,62,63)(H3,39,46,47,58)

> <PUBCHEM_IUPAC_INCHIKEY>
FJHOBTSKGNQLMC-UHFFFAOYSA-N

> <PUBCHEM_XLOGP3_AA>
-12.3

> <PUBCHEM_EXACT_MASS>
1368.1610638

> <PUBCHEM_MOLECULAR_FORMULA>
C37H57N12O32P5S

> <PUBCHEM_MOLECULAR_WEIGHT>
1368.8

> <PUBCHEM_OPENEYE_CAN_SMILES>
CC(C)(COP(=O)(O)OP(=O)(O)OCC1C(C(C(O1)N2C=NC3=C(N=CN=C32)N)O)OP(=O)(O)O)C(C(=O)NCCC(=O)NCCSC(=O)C4C(C(C(C(O4)OP(=O)(O)OP(=O)(O)OCC5C(C(C(O5)N6C=NC7=C6N=C(NC7=O)N)O)O)O)O)O)O

> <PUBCHEM_OPENEYE_ISO_SMILES>
CC(C)(COP(=O)(O)OP(=O)(O)OCC1C(C(C(O1)N2C=NC3=C(N=CN=C32)N)O)OP(=O)(O)O)C(C(=O)NCCC(=O)NCCSC(=O)C4C(C(C(C(O4)OP(=O)(O)OP(=O)(O)OCC5C(C(C(O5)N6C=NC7=C6N=C(NC7=O)N)O)O)O)O)O)O

> <PUBCHEM_CACTVS_TPSA>
696

> <PUBCHEM_MONOISOTOPIC_WEIGHT>
1368.1610638

> <PUBCHEM_TOTAL_CHARGE>
0

> <PUBCHEM_HEAVY_ATOM_COUNT>
87

> <PUBCHEM_ATOM_DEF_STEREO_COUNT>
0

> <PUBCHEM_ATOM_UDEF_STEREO_COUNT>
14

> <PUBCHEM_BOND_DEF_STEREO_COUNT>
0

> <PUBCHEM_BOND_UDEF_STEREO_COUNT>
0

> <PUBCHEM_ISOTOPIC_ATOM_COUNT>
0

> <PUBCHEM_COMPONENT_COUNT>
1

> <PUBCHEM_CACTVS_TAUTO_COUNT>
-1

> <PUBCHEM_COORDINATE_TYPE>
1
5
255

> <PUBCHEM_BONDANNOTATIONS>
52  10  3
55  11  3
56  12  3
69  16  3
66  20  3
67  22  3
68  23  3
79  32  3
54  39  3
39  61  8
39  62  8
57  40  3
40  63  8
40  65  8
41  62  8
41  64  8
42  61  8
42  75  8
43  65  8
43  70  8
44  63  8
44  77  8
45  72  8
45  75  8
46  74  8
46  77  8
53  59  3
58  60  3
61  64  8
63  70  8
64  72  8
70  74  8
71  76  3
51  9  3

$$$$
155488915
  -OEChem-03012215082D

120124  0     1  0  0  0  0  0999 V2000
    7.6858    5.6592    0.0000 S   0  0  0  0  0  0  0  0  0  0  0  0
   20.9100   -3.5211    0.0000 P   0  0  0  0  0  0  0  0  0  0  0  0
   17.6597   -2.6787    0.0000 P   0  0  3  0  0  0  0  0  0  0  0  0
    3.4116    4.8041    0.0000 P   0  0  0  0  0  0  0  0  0  0  0  0
   16.3745   -1.5175    0.0000 P   0  0  3  0  0  0  0  0  0  0  0  0
    6.0376    5.1269    0.0000 O   0  0  0  0  0  0  0  0  0  0  0  0
   18.6630   -5.5995    0.0000 O   0  0  0  0  0  0  0  0  0  0  0  0
   21.0128   -4.5158    0.0000 O   0  0  0  0  0  0  0  0  0  0  0  0
   21.0090   -6.6914    0.0000 O   0  0  0  0  0  0  0  0  0  0  0  0
    4.5008    9.8848    0.0000 O   0  0  0  0  0  0  0  0  0  0  0  0
   17.9671   -3.6303    0.0000 O   0  0  0  0  0  0  0  0  0  0  0  0
    3.1042    5.7557    0.0000 O   0  0  0  0  0  0  0  0  0  0  0  0
   20.8072   -2.5264    0.0000 O   0  0  0  0  0  0  0  0  0  0  0  0
   21.9047   -3.4183    0.0000 O   0  0  0  0  0  0  0  0  0  0  0  0
   17.3523   -1.7271    0.0000 O   0  0  0  0  0  0  0  0  0  0  0  0
   19.9153   -3.6239    0.0000 O   0  0  0  0  0  0  0  0  0  0  0  0
   15.3968   -1.3079    0.0000 O   0  0  0  0  0  0  0  0  0  0  0  0
   16.7081   -2.9861    0.0000 O   0  0  0  0  0  0  0  0  0  0  0  0
   18.6113   -2.3714    0.0000 O   0  0  0  0  0  0  0  0  0  0  0  0
   10.9265    4.0788    0.0000 O   0  0  0  0  0  0  0  0  0  0  0  0
   12.4634   -0.6791    0.0000 O   0  0  0  0  0  0  0  0  0  0  0  0
    3.7190    3.8525    0.0000 O   0  0  0  0  0  0  0  0  0  0  0  0
    2.4600    4.4967    0.0000 O   0  0  0  0  0  0  0  0  0  0  0  0
    4.3632    5.1114    0.0000 O   0  0  0  0  0  0  0  0  0  0  0  0
   16.5841   -0.5397    0.0000 O   0  0  0  0  0  0  0  0  0  0  0  0
   13.4969    1.7564    0.0000 O   0  0  0  0  0  0  0  0  0  0  0  0
   16.1649   -2.4953    0.0000 O   0  0  0  0  0  0  0  0  0  0  0  0
    5.4229    7.0300    0.0000 N   0  0  0  0  0  0  0  0  0  0  0  0
   18.9388   -7.3601    0.0000 N   0  0  0  0  0  0  0  0  0  0  0  0
    2.1821    8.6104    0.0000 N   0  0  0  0  0  0  0  0  0  0  0  0
    9.2783    3.5464    0.0000 N   0  0  0  0  0  0  0  0  0  0  0  0
   18.9388   -8.9695    0.0000 N   0  0  0  0  0  0  0  0  0  0  0  0
   17.1265   -7.1648    0.0000 N   0  0  0  0  0  0  0  0  0  0  0  0
   16.2605   -8.6648    0.0000 N   0  0  0  0  0  0  0  0  0  0  0  0
   11.8487    1.2241    0.0000 N   0  0  0  0  0  0  0  0  0  0  0  0
   17.1265  -10.1648    0.0000 N   0  0  0  0  0  0  0  0  0  0  0  0
    6.4006    6.8204    0.0000 C   0  0  0  0  0  0  0  0  0  0  0  0
    7.3522    7.1278    0.0000 C   0  0  0  0  0  0  0  0  0  0  0  0
    6.6103    7.7982    0.0000 C   0  0  0  0  0  0  0  0  0  0  0  0
    6.7080    5.8688    0.0000 C   0  0  0  0  0  0  0  0  0  0  0  0
    5.1155    7.9816    0.0000 C   0  0  0  0  0  0  0  0  0  0  0  0
    4.1377    8.1912    0.0000 C   0  0  0  0  0  0  0  0  0  0  0  0
   20.2027   -5.1022    0.0000 C   0  0  3  0  0  0  0  0  0  0  0  0
    7.9932    4.7076    0.0000 C   0  0  0  0  0  0  0  0  0  0  0  0
   20.2010   -6.1022    0.0000 C   0  0  3  0  0  0  0  0  0  0  0  0
   19.2522   -4.7915    0.0000 C   0  0  3  0  0  0  0  0  0  0  0  0
   19.2494   -6.4095    0.0000 C   0  0  3  0  0  0  0  0  0  0  0  0
    3.4673    7.4492    0.0000 C   0  0  0  0  0  0  0  0  0  0  0  0
    3.8303    9.1428    0.0000 C   0  0  0  0  0  0  0  0  0  0  0  0
    8.9710    4.4980    0.0000 C   0  0  0  0  0  0  0  0  0  0  0  0
   18.9449   -3.8399    0.0000 C   0  0  0  0  0  0  0  0  0  0  0  0
    3.7747    6.4976    0.0000 C   0  0  0  0  0  0  0  0  0  0  0  0
    2.8526    9.3524    0.0000 C   0  0  0  0  0  0  0  0  0  0  0  0
    2.4895    7.6588    0.0000 C   0  0  0  0  0  0  0  0  0  0  0  0
   17.9925   -7.6648    0.0000 C   0  0  0  0  0  0  0  0  0  0  0  0
   19.5224   -8.1648    0.0000 C   0  0  0  0  0  0  0  0  0  0  0  0
   17.9925   -8.6648    0.0000 C   0  0  0  0  0  0  0  0  0  0  0  0
    2.5452   10.3040    0.0000 C   0  0  0  0  0  0  0  0  0  0  0  0
   14.1116   -0.1467    0.0000 C   0  0  0  0  0  0  0  0  0  0  0  0
   10.2561    3.3368    0.0000 C   0  0  0  0  0  0  0  0  0  0  0  0
   17.1265   -9.1648    0.0000 C   0  0  0  0  0  0  0  0  0  0  0  0
   13.1338    0.0629    0.0000 C   0  0  3  0  0  0  0  0  0  0  0  0
   15.0894   -0.3563    0.0000 C   0  0  0  0  0  0  0  0  0  0  0  0
   10.5635    2.3853    0.0000 C   0  0  0  0  0  0  0  0  0  0  0  0
   14.3212    0.8311    0.0000 C   0  0  0  0  0  0  0  0  0  0  0  0
   13.9020   -1.1245    0.0000 C   0  0  0  0  0  0  0  0  0  0  0  0
   16.2605   -7.6648    0.0000 C   0  0  0  0  0  0  0  0  0  0  0  0
   11.5413    2.1757    0.0000 C   0  0  0  0  0  0  0  0  0  0  0  0
   12.8264    1.0145    0.0000 C   0  0  0  0  0  0  0  0  0  0  0  0
    7.6424    6.5799    0.0000 H   0  0  0  0  0  0  0  0  0  0  0  0
    7.8415    7.5087    0.0000 H   0  0  0  0  0  0  0  0  0  0  0  0
    6.9397    8.3234    0.0000 H   0  0  0  0  0  0  0  0  0  0  0  0
    6.0358    8.0315    0.0000 H   0  0  0  0  0  0  0  0  0  0  0  0
    5.0072    6.5700    0.0000 H   0  0  0  0  0  0  0  0  0  0  0  0
    5.7296    8.0668    0.0000 H   0  0  0  0  0  0  0  0  0  0  0  0
    5.1382    8.6012    0.0000 H   0  0  0  0  0  0  0  0  0  0  0  0
   20.1068   -4.4896    0.0000 H   0  0  0  0  0  0  0  0  0  0  0  0
   20.7539   -5.8216    0.0000 H   0  0  0  0  0  0  0  0  0  0  0  0
    7.3791    4.6224    0.0000 H   0  0  0  0  0  0  0  0  0  0  0  0
    7.9705    4.0881    0.0000 H   0  0  0  0  0  0  0  0  0  0  0  0
   18.6400   -4.6935    0.0000 H   0  0  0  0  0  0  0  0  0  0  0  0
   19.6871   -6.8487    0.0000 H   0  0  0  0  0  0  0  0  0  0  0  0
   19.5590   -3.7547    0.0000 H   0  0  0  0  0  0  0  0  0  0  0  0
   18.9676   -3.2203    0.0000 H   0  0  0  0  0  0  0  0  0  0  0  0
    9.5851    4.5833    0.0000 H   0  0  0  0  0  0  0  0  0  0  0  0
    8.9937    5.1176    0.0000 H   0  0  0  0  0  0  0  0  0  0  0  0
    4.1555    6.0084    0.0000 H   0  0  0  0  0  0  0  0  0  0  0  0
    4.3226    6.7878    0.0000 H   0  0  0  0  0  0  0  0  0  0  0  0
    2.0739    7.1988    0.0000 H   0  0  0  0  0  0  0  0  0  0  0  0
   21.5758   -6.4402    0.0000 H   0  0  0  0  0  0  0  0  0  0  0  0
   20.1424   -8.1648    0.0000 H   0  0  0  0  0  0  0  0  0  0  0  0
    8.8627    3.0864    0.0000 H   0  0  0  0  0  0  0  0  0  0  0  0
    4.3102   10.4748    0.0000 H   0  0  0  0  0  0  0  0  0  0  0  0
    3.1352   10.4946    0.0000 H   0  0  0  0  0  0  0  0  0  0  0  0
    2.3546   10.8940    0.0000 H   0  0  0  0  0  0  0  0  0  0  0  0
    1.9552   10.1134    0.0000 H   0  0  0  0  0  0  0  0  0  0  0  0
   12.5276    0.1928    0.0000 H   0  0  0  0  0  0  0  0  0  0  0  0
   15.7035   -0.2711    0.0000 H   0  0  0  0  0  0  0  0  0  0  0  0
   15.1121    0.2632    0.0000 H   0  0  0  0  0  0  0  0  0  0  0  0
    9.9494    2.3000    0.0000 H   0  0  0  0  0  0  0  0  0  0  0  0
   10.5408    1.7657    0.0000 H   0  0  0  0  0  0  0  0  0  0  0  0
   14.9274    0.7011    0.0000 H   0  0  0  0  0  0  0  0  0  0  0  0
   14.4512    1.4373    0.0000 H   0  0  0  0  0  0  0  0  0  0  0  0
   13.7150    0.9610    0.0000 H   0  0  0  0  0  0  0  0  0  0  0  0
   13.2958   -0.9946    0.0000 H   0  0  0  0  0  0  0  0  0  0  0  0
   13.7720   -1.7308    0.0000 H   0  0  0  0  0  0  0  0  0  0  0  0
   14.5082   -1.2545    0.0000 H   0  0  0  0  0  0  0  0  0  0  0  0
   21.3094   -2.1628    0.0000 H   0  0  0  0  0  0  0  0  0  0  0  0
   22.2682   -3.9205    0.0000 H   0  0  0  0  0  0  0  0  0  0  0  0
   15.7236   -7.3548    0.0000 H   0  0  0  0  0  0  0  0  0  0  0  0
   12.1554    2.2609    0.0000 H   0  0  0  0  0  0  0  0  0  0  0  0
   11.5640    2.7952    0.0000 H   0  0  0  0  0  0  0  0  0  0  0  0
   11.4330    0.7640    0.0000 H   0  0  0  0  0  0  0  0  0  0  0  0
   16.5782   -3.5923    0.0000 H   0  0  0  0  0  0  0  0  0  0  0  0
   16.5896  -10.4748    0.0000 H   0  0  0  0  0  0  0  0  0  0  0  0
   17.6635  -10.4748    0.0000 H   0  0  0  0  0  0  0  0  0  0  0  0
   11.8572   -0.5492    0.0000 H   0  0  0  0  0  0  0  0  0  0  0  0
    3.3033    3.3925    0.0000 H   0  0  0  0  0  0  0  0  0  0  0  0
    2.0000    4.9124    0.0000 H   0  0  0  0  0  0  0  0  0  0  0  0
   17.1741   -0.3492    0.0000 H   0  0  0  0  0  0  0  0  0  0  0  0
  1 40  1  0  0  0  0
  1 44  1  0  0  0  0
  2  8  1  0  0  0  0
  2 13  1  0  0  0  0
  2 14  1  0  0  0  0
  2 16  2  0  0  0  0
  3 11  1  0  0  0  0
  3 15  1  0  0  0  0
  3 18  1  0  0  0  0
  3 19  2  0  0  0  0
  4 12  1  0  0  0  0
  4 22  1  0  0  0  0
  4 23  1  0  0  0  0
  4 24  2  0  0  0  0
  5 15  1  0  0  0  0
  5 17  1  0  0  0  0
  5 25  1  0  0  0  0
  5 27  2  0  0  0  0
  6 40  2  0  0  0  0
  7 46  1  0  0  0  0
  7 47  1  0  0  0  0
  8 43  1  0  0  0  0
  9 45  1  0  0  0  0
  9 90  1  0  0  0  0
 10 49  1  0  0  0  0
 10 93  1  0  0  0  0
 11 51  1  0  0  0  0
 12 52  1  0  0  0  0
 13108  1  0  0  0  0
 14109  1  0  0  0  0
 17 63  1  0  0  0  0
 18114  1  0  0  0  0
 20 60  2  0  0  0  0
 21 62  1  0  0  0  0
 21117  1  0  0  0  0
 22118  1  0  0  0  0
 23119  1  0  0  0  0
 25120  1  0  0  0  0
 26 69  2  0  0  0  0
 28 37  1  0  0  0  0
 28 41  1  0  0  0  0
 28 74  1  0  0  0  0
 29 47  1  0  0  0  0
 29 55  1  0  0  0  0
 29 56  1  0  0  0  0
 30 53  2  0  0  0  0
 30 54  1  0  0  0  0
 31 50  1  0  0  0  0
 31 60  1  0  0  0  0
 31 92  1  0  0  0  0
 32 56  2  0  0  0  0
 32 57  1  0  0  0  0
 33 55  2  0  0  0  0
 33 67  1  0  0  0  0
 34 61  1  0  0  0  0
 34 67  2  0  0  0  0
 35 68  1  0  0  0  0
 35 69  1  0  0  0  0
 35113  1  0  0  0  0
 36 61  1  0  0  0  0
 36115  1  0  0  0  0
 36116  1  0  0  0  0
 37 38  1  0  0  0  0
 37 39  1  0  0  0  0
 37 40  1  0  0  0  0
 38 39  1  0  0  0  0
 38 70  1  0  0  0  0
 38 71  1  0  0  0  0
 39 72  1  0  0  0  0
 39 73  1  0  0  0  0
 41 42  1  0  0  0  0
 41 75  1  0  0  0  0
 41 76  1  0  0  0  0
 42 48  1  0  0  0  0
 42 49  2  0  0  0  0
 43 45  1  0  0  0  0
 43 46  1  0  0  0  0
 43 77  1  0  0  0  0
 44 50  1  0  0  0  0
 44 79  1  0  0  0  0
 44 80  1  0  0  0  0
 45 47  1  0  0  0  0
 45 78  1  0  0  0  0
 46 51  1  0  0  0  0
 46 81  1  0  0  0  0
 47 82  1  0  0  0  0
 48 52  1  0  0  0  0
 48 54  2  0  0  0  0
 49 53  1  0  0  0  0
 50 85  1  0  0  0  0
 50 86  1  0  0  0  0
 51 83  1  0  0  0  0
 51 84  1  0  0  0  0
 52 87  1  0  0  0  0
 52 88  1  0  0  0  0
 53 58  1  0  0  0  0
 54 89  1  0  0  0  0
 55 57  1  0  0  0  0
 56 91  1  0  0  0  0
 57 61  2  0  0  0  0
 58 94  1  0  0  0  0
 58 95  1  0  0  0  0
 58 96  1  0  0  0  0
 59 62  1  0  0  0  0
 59 63  1  0  0  0  0
 59 65  1  0  0  0  0
 59 66  1  0  0  0  0
 60 64  1  0  0  0  0
 62 69  1  0  0  0  0
 62 97  1  0  0  0  0
 63 98  1  0  0  0  0
 63 99  1  0  0  0  0
 64 68  1  0  0  0  0
 64100  1  0  0  0  0
 64101  1  0  0  0  0
 65102  1  0  0  0  0
 65103  1  0  0  0  0
 65104  1  0  0  0  0
 66105  1  0  0  0  0
 66106  1  0  0  0  0
 66107  1  0  0  0  0
 67110  1  0  0  0  0
 68111  1  0  0  0  0
 68112  1  0  0  0  0
M  END
> <PUBCHEM_COMPOUND_CID>
155488915

> <PUBCHEM_COMPOUND_CANONICALIZED>
1

> <PUBCHEM_CACTVS_COMPLEXITY>
1990

> <PUBCHEM_CACTVS_HBOND_ACCEPTOR>
29

> <PUBCHEM_CACTVS_HBOND_DONOR>
13

> <PUBCHEM_CACTVS_ROTATABLE_BOND>
27

> <PUBCHEM_CACTVS_SUBSKEYS>
AAADcfB//gPAAAAAAAAAAAAAGAAAAWJAAAAsWAAAAAAAAFgB/gAAHgQQCCAADpzl3wav9r/MFxioQxd3dIaCgC0xcLAB2KH9XJiLfnry2fOedAhv1hP72CfycAMPgAAAAAAAAAAAAAAAAAAAAAAAAAAAAA==

> <PUBCHEM_IUPAC_OPENEYE_NAME>
S-[2-[3-[[4-[[[5-(6-aminopurin-9-yl)-4-hydroxy-3-phosphonooxy-tetrahydrofuran-2-yl]methoxy-hydroxy-phosphoryl]oxy-hydroxy-phosphoryl]oxy-2-hydroxy-3,3-dimethyl-butanoyl]amino]propanoylamino]ethyl] 1-[[3-hydroxy-2-methyl-5-(phosphonooxymethyl)-4-pyridyl]methylamino]cyclopropanecarbothioate

> <PUBCHEM_IUPAC_CAS_NAME>
1-[[3-hydroxy-2-methyl-5-(phosphonooxymethyl)-4-pyridinyl]methylamino]-1-cyclopropanecarbothioic acid S-[2-[[3-[[4-[[[5-(6-aminopurin-9-yl)-4-hydroxy-3-phosphonooxy-2-oxolanyl]methoxy-hydroxyphosphoryl]oxy-hydroxyphosphoryl]oxy-2-hydroxy-3,3-dimethyl-1-oxobutyl]amino]-1-oxopropyl]amino]ethyl] ester

> <PUBCHEM_IUPAC_NAME_MARKUP>
<I>S</I>-[2-[3-[[4-[[[5-(6-aminopurin-9-yl)-4-hydroxy-3-phosphonooxyoxolan-2-yl]methoxy-hydroxyphosphoryl]oxy-hydroxyphosphoryl]oxy-2-hydroxy-3,3-dimethylbutanoyl]amino]propanoylamino]ethyl] 1-[[3-hydroxy-2-methyl-5-(phosphonooxymethyl)pyridin-4-yl]methylamino]cyclopropane-1-carbothioate

> <PUBCHEM_IUPAC_NAME>
S-[2-[3-[[4-[[[5-(6-aminopurin-9-yl)-4-hydroxy-3-phosphonooxyoxolan-2-yl]methoxy-hydroxyphosphoryl]oxy-hydroxyphosphoryl]oxy-2-hydroxy-3,3-dimethylbutanoyl]amino]propanoylamino]ethyl] 1-[[3-hydroxy-2-methyl-5-(phosphonooxymethyl)pyridin-4-yl]methylamino]cyclopropane-1-carbothioate

> <PUBCHEM_IUPAC_SYSTEMATIC_NAME>
S-[2-[3-[[4-[[[5-(6-aminopurin-9-yl)-4-oxidanyl-3-phosphonooxy-oxolan-2-yl]methoxy-oxidanyl-phosphoryl]oxy-oxidanyl-phosphoryl]oxy-3,3-dimethyl-2-oxidanyl-butanoyl]amino]propanoylamino]ethyl] 1-[[2-methyl-3-oxidanyl-5-(phosphonooxymethyl)pyridin-4-yl]methylamino]cyclopropane-1-carbothioate

> <PUBCHEM_IUPAC_TRADITIONAL_NAME>
1-[[3-hydroxy-2-methyl-5-(phosphonooxymethyl)-4-pyridyl]methylamino]cyclopropanecarbothioic acid S-[2-[3-[[4-[[(5-adenin-9-yl-4-hydroxy-3-phosphonooxy-tetrahydrofuran-2-yl)methoxy-hydroxy-phosphoryl]oxy-hydroxy-phosphoryl]oxy-2-hydroxy-3,3-dimethyl-butanoyl]amino]propanoylamino]ethyl] ester

> <PUBCHEM_IUPAC_INCHI>
InChI=1S/C33H51N9O22P4S/c1-17-23(44)19(18(10-37-17)12-59-65(49,50)51)11-41-33(5-6-33)31(48)69-9-8-35-21(43)4-7-36-29(47)26(46)32(2,3)14-61-68(57,58)64-67(55,56)60-13-20-25(63-66(52,53)54)24(45)30(62-20)42-16-40-22-27(34)38-15-39-28(22)42/h10,15-16,20,24-26,30,41,44-46H,4-9,11-14H2,1-3H3,(H,35,43)(H,36,47)(H,55,56)(H,57,58)(H2,34,38,39)(H2,49,50,51)(H2,52,53,54)

> <PUBCHEM_IUPAC_INCHIKEY>
FWAWUFOOHUAJRC-UHFFFAOYSA-N

> <PUBCHEM_XLOGP3_AA>
-9.5

> <PUBCHEM_EXACT_MASS>
1081.18198345

> <PUBCHEM_MOLECULAR_FORMULA>
C33H51N9O22P4S

> <PUBCHEM_MOLECULAR_WEIGHT>
1081.8

> <PUBCHEM_OPENEYE_CAN_SMILES>
CC1=NC=C(C(=C1O)CNC2(CC2)C(=O)SCCNC(=O)CCNC(=O)C(C(C)(C)COP(=O)(O)OP(=O)(O)OCC3C(C(C(O3)N4C=NC5=C(N=CN=C54)N)O)OP(=O)(O)O)O)COP(=O)(O)O

> <PUBCHEM_OPENEYE_ISO_SMILES>
CC1=NC=C(C(=C1O)CNC2(CC2)C(=O)SCCNC(=O)CCNC(=O)C(C(C)(C)COP(=O)(O)OP(=O)(O)OCC3C(C(C(O3)N4C=NC5=C(N=CN=C54)N)O)OP(=O)(O)O)O)COP(=O)(O)O

> <PUBCHEM_CACTVS_TPSA>
501

> <PUBCHEM_MONOISOTOPIC_WEIGHT>
1081.18198345

> <PUBCHEM_TOTAL_CHARGE>
0

> <PUBCHEM_HEAVY_ATOM_COUNT>
69

> <PUBCHEM_ATOM_DEF_STEREO_COUNT>
0

> <PUBCHEM_ATOM_UDEF_STEREO_COUNT>
5

> <PUBCHEM_BOND_DEF_STEREO_COUNT>
0

> <PUBCHEM_BOND_UDEF_STEREO_COUNT>
0

> <PUBCHEM_ISOTOPIC_ATOM_COUNT>
0

> <PUBCHEM_COMPONENT_COUNT>
1

> <PUBCHEM_CACTVS_TAUTO_COUNT>
-1

> <PUBCHEM_COORDINATE_TYPE>
1
5
255

> <PUBCHEM_BONDANNOTATIONS>
62  21  3
47  29  3
29  55  8
29  56  8
30  53  8
30  54  8
32  56  8
32  57  8
33  55  8
33  67  8
34  61  8
34  67  8
42  48  8
42  49  8
46  51  3
48  54  8
49  53  8
55  57  8
57  61  8
43  8  3
45  9  3

$$$$
155488933
  -OEChem-03012215082D

137143  0     1  0  0  0  0  0999 V2000
    9.6218   10.5653    0.0000 S   0  0  0  0  0  0  0  0  0  0  0  0
    7.6120    2.9816    0.0000 S   0  0  0  0  0  0  0  0  0  0  0  0
   20.8361   -6.1988    0.0000 P   0  0  0  0  0  0  0  0  0  0  0  0
   17.5858   -5.3564    0.0000 P   0  0  3  0  0  0  0  0  0  0  0  0
   16.3007   -4.1952    0.0000 P   0  0  3  0  0  0  0  0  0  0  0  0
    8.9869    7.6332    0.0000 O   0  0  0  0  0  0  0  0  0  0  0  0
   18.5892   -8.2772    0.0000 O   0  0  0  0  0  0  0  0  0  0  0  0
    8.1022    5.9079    0.0000 O   0  0  0  0  0  0  0  0  0  0  0  0
   20.9389   -7.1935    0.0000 O   0  0  0  0  0  0  0  0  0  0  0  0
   20.9352   -9.3690    0.0000 O   0  0  0  0  0  0  0  0  0  0  0  0
    5.6146    7.2093    0.0000 O   0  0  0  0  0  0  0  0  0  0  0  0
   17.8932   -6.3080    0.0000 O   0  0  0  0  0  0  0  0  0  0  0  0
    6.9767   10.6264    0.0000 O   0  0  0  0  0  0  0  0  0  0  0  0
    7.9750    4.6751    0.0000 O   0  0  0  0  0  0  0  0  0  0  0  0
    5.8129    9.3437    0.0000 O   0  0  0  0  0  0  0  0  0  0  0  0
   20.7333   -5.2041    0.0000 O   0  0  0  0  0  0  0  0  0  0  0  0
   21.8308   -6.0960    0.0000 O   0  0  0  0  0  0  0  0  0  0  0  0
   19.8414   -6.3016    0.0000 O   0  0  0  0  0  0  0  0  0  0  0  0
   17.2785   -4.4048    0.0000 O   0  0  0  0  0  0  0  0  0  0  0  0
   16.6343   -5.6638    0.0000 O   0  0  0  0  0  0  0  0  0  0  0  0
   15.3229   -3.9856    0.0000 O   0  0  0  0  0  0  0  0  0  0  0  0
   18.5374   -5.0490    0.0000 O   0  0  0  0  0  0  0  0  0  0  0  0
    5.9638    2.4492    0.0000 O   0  0  0  0  0  0  0  0  0  0  0  0
   12.3895   -3.3568    0.0000 O   0  0  0  0  0  0  0  0  0  0  0  0
   16.5103   -3.2174    0.0000 O   0  0  0  0  0  0  0  0  0  0  0  0
   16.0911   -5.1730    0.0000 O   0  0  0  0  0  0  0  0  0  0  0  0
    2.4157    4.9812    0.0000 O   0  0  0  0  0  0  0  0  0  0  0  0
   13.4230   -0.9212    0.0000 O   0  0  0  0  0  0  0  0  0  0  0  0
   10.8527    1.4012    0.0000 O   0  0  0  0  0  0  0  0  0  0  0  0
    7.2941    7.9998    0.0000 N   0  0  0  0  0  0  0  0  0  0  0  0
    6.6898    5.8363    0.0000 N   0  0  0  0  0  0  0  0  0  0  0  0
   18.8649  -10.0377    0.0000 N   0  0  0  0  0  0  0  0  0  0  0  0
   18.8649  -11.6472    0.0000 N   0  0  0  0  0  0  0  0  0  0  0  0
   17.0527   -9.8425    0.0000 N   0  0  0  0  0  0  0  0  0  0  0  0
   16.1866  -11.3425    0.0000 N   0  0  0  0  0  0  0  0  0  0  0  0
   17.0527  -12.8425    0.0000 N   0  0  0  0  0  0  0  0  0  0  0  0
   10.7484   11.9459    0.0000 N   0  0  0  0  0  0  0  0  0  0  0  0
    9.1671   12.2883    0.0000 N   0  0  0  0  0  0  0  0  0  0  0  0
   11.7748   -1.4536    0.0000 N   0  0  0  0  0  0  0  0  0  0  0  0
   10.6477   12.9409    0.0000 N   0  0  0  0  0  0  0  0  0  0  0  0
    9.6703   13.1525    0.0000 N   0  0  0  0  0  0  0  0  0  0  0  0
    9.2045    0.8688    0.0000 N   0  0  0  0  0  0  0  0  0  0  0  0
    7.3603    6.5783    0.0000 C   0  0  3  0  0  0  0  0  0  0  0  0
    8.0347    7.3278    0.0000 C   0  0  3  0  0  0  0  0  0  0  0  0
    6.6135    7.2558    0.0000 C   0  0  0  0  0  0  0  0  0  0  0  0
   20.1289   -7.7798    0.0000 C   0  0  3  0  0  0  0  0  0  0  0  0
   20.1272   -8.7798    0.0000 C   0  0  3  0  0  0  0  0  0  0  0  0
   19.1784   -7.4692    0.0000 C   0  0  3  0  0  0  0  0  0  0  0  0
   19.1756   -9.0872    0.0000 C   0  0  3  0  0  0  0  0  0  0  0  0
    7.5057    8.9771    0.0000 C   0  0  0  0  0  0  0  0  0  0  0  0
    8.4579    9.2826    0.0000 C   0  0  0  0  0  0  0  0  0  0  0  0
    9.1985    8.6106    0.0000 C   0  0  0  0  0  0  0  0  0  0  0  0
   18.8710   -6.5176    0.0000 C   0  0  0  0  0  0  0  0  0  0  0  0
    6.9972    4.8847    0.0000 C   0  0  0  0  0  0  0  0  0  0  0  0
    8.6695   10.2599    0.0000 C   0  0  0  0  0  0  0  0  0  0  0  0
    6.7651    9.6491    0.0000 C   0  0  0  0  0  0  0  0  0  0  0  0
   17.9187  -10.3425    0.0000 C   0  0  0  0  0  0  0  0  0  0  0  0
    9.0538    6.2153    0.0000 C   0  0  0  0  0  0  0  0  0  0  0  0
    6.3268    4.1428    0.0000 C   0  0  3  0  0  0  0  0  0  0  0  0
   19.4485  -10.8425    0.0000 C   0  0  0  0  0  0  0  0  0  0  0  0
   17.9187  -11.3425    0.0000 C   0  0  0  0  0  0  0  0  0  0  0  0
    5.3490    4.3524    0.0000 C   0  0  0  0  0  0  0  0  0  0  0  0
    6.6342    3.1912    0.0000 C   0  0  0  0  0  0  0  0  0  0  0  0
   17.0527  -11.8425    0.0000 C   0  0  0  0  0  0  0  0  0  0  0  0
   14.0377   -2.8244    0.0000 C   0  0  0  0  0  0  0  0  0  0  0  0
    4.6786    3.6104    0.0000 C   0  0  0  0  0  0  0  0  0  0  0  0
    5.0416    5.3040    0.0000 C   0  0  0  0  0  0  0  0  0  0  0  0
   16.1866  -10.3425    0.0000 C   0  0  0  0  0  0  0  0  0  0  0  0
    9.8334   11.5427    0.0000 C   0  0  0  0  0  0  0  0  0  0  0  0
   15.0155   -3.0340    0.0000 C   0  0  0  0  0  0  0  0  0  0  0  0
   13.0600   -2.6148    0.0000 C   0  0  3  0  0  0  0  0  0  0  0  0
   14.2473   -1.8466    0.0000 C   0  0  0  0  0  0  0  0  0  0  0  0
   13.8281   -3.8022    0.0000 C   0  0  0  0  0  0  0  0  0  0  0  0
    3.7008    3.8200    0.0000 C   0  0  0  0  0  0  0  0  0  0  0  0
    4.0639    5.5136    0.0000 C   0  0  0  0  0  0  0  0  0  0  0  0
    7.9193    2.0300    0.0000 C   0  0  0  0  0  0  0  0  0  0  0  0
   12.7526   -1.6632    0.0000 C   0  0  0  0  0  0  0  0  0  0  0  0
    3.3934    4.7716    0.0000 C   0  0  0  0  0  0  0  0  0  0  0  0
    8.8971    1.8204    0.0000 C   0  0  0  0  0  0  0  0  0  0  0  0
   11.6126   11.4427    0.0000 C   0  0  0  0  0  0  0  0  0  0  0  0
   11.4674   -0.5020    0.0000 C   0  0  0  0  0  0  0  0  0  0  0  0
   10.4896   -0.2924    0.0000 C   0  0  0  0  0  0  0  0  0  0  0  0
   10.1823    0.6592    0.0000 C   0  0  0  0  0  0  0  0  0  0  0  0
    8.3715    6.8073    0.0000 H   0  0  0  0  0  0  0  0  0  0  0  0
   20.6808   -8.0623    0.0000 H   0  0  0  0  0  0  0  0  0  0  0  0
   20.6801   -8.4993    0.0000 H   0  0  0  0  0  0  0  0  0  0  0  0
   18.5662   -7.3711    0.0000 H   0  0  0  0  0  0  0  0  0  0  0  0
   18.5630   -9.1832    0.0000 H   0  0  0  0  0  0  0  0  0  0  0  0
    6.0836    5.9663    0.0000 H   0  0  0  0  0  0  0  0  0  0  0  0
    9.7725    8.3762    0.0000 H   0  0  0  0  0  0  0  0  0  0  0  0
    9.5291    9.1352    0.0000 H   0  0  0  0  0  0  0  0  0  0  0  0
   19.4851   -6.4324    0.0000 H   0  0  0  0  0  0  0  0  0  0  0  0
   18.8937   -5.8980    0.0000 H   0  0  0  0  0  0  0  0  0  0  0  0
    8.5856   10.8742    0.0000 H   0  0  0  0  0  0  0  0  0  0  0  0
    8.0500   10.2839    0.0000 H   0  0  0  0  0  0  0  0  0  0  0  0
   21.5020   -9.1178    0.0000 H   0  0  0  0  0  0  0  0  0  0  0  0
    9.2444    5.6253    0.0000 H   0  0  0  0  0  0  0  0  0  0  0  0
    9.6438    6.4058    0.0000 H   0  0  0  0  0  0  0  0  0  0  0  0
    8.8633    6.8053    0.0000 H   0  0  0  0  0  0  0  0  0  0  0  0
    6.9330    4.0128    0.0000 H   0  0  0  0  0  0  0  0  0  0  0  0
   20.0685  -10.8425    0.0000 H   0  0  0  0  0  0  0  0  0  0  0  0
    6.5175   11.0430    0.0000 H   0  0  0  0  0  0  0  0  0  0  0  0
   21.2355   -4.8405    0.0000 H   0  0  0  0  0  0  0  0  0  0  0  0
   22.1944   -6.5982    0.0000 H   0  0  0  0  0  0  0  0  0  0  0  0
   15.6497  -10.0325    0.0000 H   0  0  0  0  0  0  0  0  0  0  0  0
    4.8692    3.0204    0.0000 H   0  0  0  0  0  0  0  0  0  0  0  0
    5.4573    5.7640    0.0000 H   0  0  0  0  0  0  0  0  0  0  0  0
   15.6296   -2.9488    0.0000 H   0  0  0  0  0  0  0  0  0  0  0  0
   15.0382   -2.4144    0.0000 H   0  0  0  0  0  0  0  0  0  0  0  0
   13.2505   -3.2048    0.0000 H   0  0  0  0  0  0  0  0  0  0  0  0
   14.8536   -1.9766    0.0000 H   0  0  0  0  0  0  0  0  0  0  0  0
   14.3773   -1.2404    0.0000 H   0  0  0  0  0  0  0  0  0  0  0  0
   13.6411   -1.7167    0.0000 H   0  0  0  0  0  0  0  0  0  0  0  0
   13.2219   -3.6722    0.0000 H   0  0  0  0  0  0  0  0  0  0  0  0
   13.6982   -4.4084    0.0000 H   0  0  0  0  0  0  0  0  0  0  0  0
   14.4344   -3.9322    0.0000 H   0  0  0  0  0  0  0  0  0  0  0  0
   16.5157  -13.1525    0.0000 H   0  0  0  0  0  0  0  0  0  0  0  0
   17.5896  -13.1525    0.0000 H   0  0  0  0  0  0  0  0  0  0  0  0
   16.5043   -6.2700    0.0000 H   0  0  0  0  0  0  0  0  0  0  0  0
    3.2852    3.3600    0.0000 H   0  0  0  0  0  0  0  0  0  0  0  0
    3.8733    6.1035    0.0000 H   0  0  0  0  0  0  0  0  0  0  0  0
    7.3052    1.9448    0.0000 H   0  0  0  0  0  0  0  0  0  0  0  0
    7.8966    1.4104    0.0000 H   0  0  0  0  0  0  0  0  0  0  0  0
   11.7833   -3.2268    0.0000 H   0  0  0  0  0  0  0  0  0  0  0  0
    9.5112    1.9056    0.0000 H   0  0  0  0  0  0  0  0  0  0  0  0
    8.9198    2.4400    0.0000 H   0  0  0  0  0  0  0  0  0  0  0  0
   11.3591   -1.9136    0.0000 H   0  0  0  0  0  0  0  0  0  0  0  0
   11.3005   10.9069    0.0000 H   0  0  0  0  0  0  0  0  0  0  0  0
   12.1483   11.1306    0.0000 H   0  0  0  0  0  0  0  0  0  0  0  0
   11.9246   11.9784    0.0000 H   0  0  0  0  0  0  0  0  0  0  0  0
   12.0815   -0.4168    0.0000 H   0  0  0  0  0  0  0  0  0  0  0  0
   11.4901    0.1176    0.0000 H   0  0  0  0  0  0  0  0  0  0  0  0
   17.1003   -3.0268    0.0000 H   0  0  0  0  0  0  0  0  0  0  0  0
    9.8755   -0.3776    0.0000 H   0  0  0  0  0  0  0  0  0  0  0  0
   10.4669   -0.9120    0.0000 H   0  0  0  0  0  0  0  0  0  0  0  0
    8.7888    0.4087    0.0000 H   0  0  0  0  0  0  0  0  0  0  0  0
    2.0000    4.5211    0.0000 H   0  0  0  0  0  0  0  0  0  0  0  0
  1 55  1  0  0  0  0
  1 69  1  0  0  0  0
  2 63  1  0  0  0  0
  2 76  1  0  0  0  0
  3  9  1  0  0  0  0
  3 16  1  0  0  0  0
  3 17  1  0  0  0  0
  3 18  2  0  0  0  0
  4 12  1  0  0  0  0
  4 19  1  0  0  0  0
  4 20  1  0  0  0  0
  4 22  2  0  0  0  0
  5 19  1  0  0  0  0
  5 21  1  0  0  0  0
  5 25  1  0  0  0  0
  5 26  2  0  0  0  0
  6 44  1  0  0  0  0
  6 52  1  0  0  0  0
  7 48  1  0  0  0  0
  7 49  1  0  0  0  0
  8 43  1  0  0  0  0
  8 58  1  0  0  0  0
  9 46  1  0  0  0  0
 10 47  1  0  0  0  0
 10 96  1  0  0  0  0
 11 45  2  0  0  0  0
 12 53  1  0  0  0  0
 13 56  1  0  0  0  0
 13102  1  0  0  0  0
 14 54  2  0  0  0  0
 15 56  2  0  0  0  0
 16103  1  0  0  0  0
 17104  1  0  0  0  0
 20119  1  0  0  0  0
 21 70  1  0  0  0  0
 23 63  2  0  0  0  0
 24 71  1  0  0  0  0
 24124  1  0  0  0  0
 25133  1  0  0  0  0
 27 78  1  0  0  0  0
 27137  1  0  0  0  0
 28 77  2  0  0  0  0
 29 83  2  0  0  0  0
 30 44  1  0  0  0  0
 30 45  1  0  0  0  0
 30 50  1  0  0  0  0
 31 43  1  0  0  0  0
 31 54  1  0  0  0  0
 31 89  1  0  0  0  0
 32 49  1  0  0  0  0
 32 57  1  0  0  0  0
 32 60  1  0  0  0  0
 33 60  2  0  0  0  0
 33 61  1  0  0  0  0
 34 57  2  0  0  0  0
 34 68  1  0  0  0  0
 35 64  1  0  0  0  0
 35 68  2  0  0  0  0
 36 64  1  0  0  0  0
 36117  1  0  0  0  0
 36118  1  0  0  0  0
 37 40  1  0  0  0  0
 37 69  1  0  0  0  0
 37 80  1  0  0  0  0
 38 41  1  0  0  0  0
 38 69  2  0  0  0  0
 39 77  1  0  0  0  0
 39 81  1  0  0  0  0
 39127  1  0  0  0  0
 40 41  2  0  0  0  0
 42 79  1  0  0  0  0
 42 83  1  0  0  0  0
 42136  1  0  0  0  0
 43 44  1  0  0  0  0
 43 45  1  0  0  0  0
 44 84  1  0  0  0  0
 46 47  1  0  0  0  0
 46 48  1  0  0  0  0
 46 85  1  0  0  0  0
 47 49  1  0  0  0  0
 47 86  1  0  0  0  0
 48 53  1  0  0  0  0
 48 87  1  0  0  0  0
 49 88  1  0  0  0  0
 50 51  2  0  0  0  0
 50 56  1  0  0  0  0
 51 52  1  0  0  0  0
 51 55  1  0  0  0  0
 52 90  1  0  0  0  0
 52 91  1  0  0  0  0
 53 92  1  0  0  0  0
 53 93  1  0  0  0  0
 54 59  1  0  0  0  0
 55 94  1  0  0  0  0
 55 95  1  0  0  0  0
 57 61  1  0  0  0  0
 58 97  1  0  0  0  0
 58 98  1  0  0  0  0
 58 99  1  0  0  0  0
 59 62  1  0  0  0  0
 59 63  1  0  0  0  0
 59100  1  0  0  0  0
 60101  1  0  0  0  0
 61 64  2  0  0  0  0
 62 66  2  0  0  0  0
 62 67  1  0  0  0  0
 65 70  1  0  0  0  0
 65 71  1  0  0  0  0
 65 72  1  0  0  0  0
 65 73  1  0  0  0  0
 66 74  1  0  0  0  0
 66106  1  0  0  0  0
 67 75  2  0  0  0  0
 67107  1  0  0  0  0
 68105  1  0  0  0  0
 70108  1  0  0  0  0
 70109  1  0  0  0  0
 71 77  1  0  0  0  0
 71110  1  0  0  0  0
 72111  1  0  0  0  0
 72112  1  0  0  0  0
 72113  1  0  0  0  0
 73114  1  0  0  0  0
 73115  1  0  0  0  0
 73116  1  0  0  0  0
 74 78  2  0  0  0  0
 74120  1  0  0  0  0
 75 78  1  0  0  0  0
 75121  1  0  0  0  0
 76 79  1  0  0  0  0
 76122  1  0  0  0  0
 76123  1  0  0  0  0
 79125  1  0  0  0  0
 79126  1  0  0  0  0
 80128  1  0  0  0  0
 80129  1  0  0  0  0
 80130  1  0  0  0  0
 81 82  1  0  0  0  0
 81131  1  0  0  0  0
 81132  1  0  0  0  0
 82 83  1  0  0  0  0
 82134  1  0  0  0  0
 82135  1  0  0  0  0
M  END
> <PUBCHEM_COMPOUND_CID>
155488933

> <PUBCHEM_COMPOUND_CANONICALIZED>
1

> <PUBCHEM_CACTVS_COMPLEXITY>
2580

> <PUBCHEM_CACTVS_HBOND_ACCEPTOR>
33

> <PUBCHEM_CACTVS_HBOND_DONOR>
12

> <PUBCHEM_CACTVS_ROTATABLE_BOND>
29

> <PUBCHEM_CACTVS_SUBSKEYS>
AAADcfB//gNgAAAAAAAAAAAAAABYAWLEgAA8QIAAAAAQAFgB/gAAHgQYCCAADxzl3wa3/r/MFxiqQyfzfIKCkC9xsLAN2KHuXNmLfj7q/XefdAgv9hP7uSf6+NKPoAAAAAAAAABAAAAAAAAAAAAAAAAAAA==

> <PUBCHEM_IUPAC_OPENEYE_NAME>
7-[[3-[2-[3-[[4-[[[5-(6-aminopurin-9-yl)-4-hydroxy-3-phosphonooxy-tetrahydrofuran-2-yl]methoxy-hydroxy-phosphoryl]oxy-hydroxy-phosphoryl]oxy-2-hydroxy-3,3-dimethyl-butanoyl]amino]propanoylamino]ethylsulfanyl]-2-(4-hydroxyphenyl)-3-oxo-propanoyl]amino]-7-methoxy-3-[(1-methyltetrazol-5-yl)sulfanylmethyl]-8-oxo-5-oxa-1-azabicyclo[4.2.0]oct-2-ene-2-carboxylic acid

> <PUBCHEM_IUPAC_CAS_NAME>
7-[[3-[2-[[3-[[4-[[[5-(6-aminopurin-9-yl)-4-hydroxy-3-phosphonooxy-2-oxolanyl]methoxy-hydroxyphosphoryl]oxy-hydroxyphosphoryl]oxy-2-hydroxy-3,3-dimethyl-1-oxobutyl]amino]-1-oxopropyl]amino]ethylthio]-2-(4-hydroxyphenyl)-1,3-dioxopropyl]amino]-7-methoxy-3-[[(1-methyl-5-tetrazolyl)thio]methyl]-8-oxo-5-oxa-1-azabicyclo[4.2.0]oct-2-ene-2-carboxylic acid

> <PUBCHEM_IUPAC_NAME_MARKUP>
7-[[3-[2-[3-[[4-[[[5-(6-aminopurin-9-yl)-4-hydroxy-3-phosphonooxyoxolan-2-yl]methoxy-hydroxyphosphoryl]oxy-hydroxyphosphoryl]oxy-2-hydroxy-3,3-dimethylbutanoyl]amino]propanoylamino]ethylsulfanyl]-2-(4-hydroxyphenyl)-3-oxopropanoyl]amino]-7-methoxy-3-[(1-methyltetrazol-5-yl)sulfanylmethyl]-8-oxo-5-oxa-1-azabicyclo[4.2.0]oct-2-ene-2-carboxylic acid

> <PUBCHEM_IUPAC_NAME>
7-[[3-[2-[3-[[4-[[[5-(6-aminopurin-9-yl)-4-hydroxy-3-phosphonooxyoxolan-2-yl]methoxy-hydroxyphosphoryl]oxy-hydroxyphosphoryl]oxy-2-hydroxy-3,3-dimethylbutanoyl]amino]propanoylamino]ethylsulfanyl]-2-(4-hydroxyphenyl)-3-oxopropanoyl]amino]-7-methoxy-3-[(1-methyltetrazol-5-yl)sulfanylmethyl]-8-oxo-5-oxa-1-azabicyclo[4.2.0]oct-2-ene-2-carboxylic acid

> <PUBCHEM_IUPAC_SYSTEMATIC_NAME>
7-[[3-[2-[3-[[4-[[[5-(6-aminopurin-9-yl)-4-oxidanyl-3-phosphonooxy-oxolan-2-yl]methoxy-oxidanyl-phosphoryl]oxy-oxidanyl-phosphoryl]oxy-3,3-dimethyl-2-oxidanyl-butanoyl]amino]propanoylamino]ethylsulfanyl]-2-(4-hydroxyphenyl)-3-oxidanylidene-propanoyl]amino]-7-methoxy-3-[(1-methyl-1,2,3,4-tetrazol-5-yl)sulfanylmethyl]-8-oxidanylidene-5-oxa-1-azabicyclo[4.2.0]oct-2-ene-2-carboxylic acid

> <PUBCHEM_IUPAC_TRADITIONAL_NAME>
7-[[3-[2-[3-[[4-[[(5-adenin-9-yl-4-hydroxy-3-phosphonooxy-tetrahydrofuran-2-yl)methoxy-hydroxy-phosphoryl]oxy-hydroxy-phosphoryl]oxy-2-hydroxy-3,3-dimethyl-butanoyl]amino]propanoylamino]ethylthio]-2-(4-hydroxyphenyl)-3-keto-propanoyl]amino]-8-keto-7-methoxy-3-[[(1-methyltetrazol-5-yl)thio]methyl]-5-oxa-1-azabicyclo[4.2.0]oct-2-ene-2-carboxylic acid

> <PUBCHEM_IUPAC_INCHI>
InChI=1S/C41H54N13O24P3S2/c1-40(2,16-75-81(70,71)78-80(68,69)74-14-22-28(77-79(65,66)67)27(57)34(76-22)53-18-47-25-30(42)45-17-46-31(25)53)29(58)33(60)44-10-9-23(56)43-11-12-82-36(63)24(19-5-7-21(55)8-6-19)32(59)48-41(72-4)37(64)54-26(35(61)62)20(13-73-38(41)54)15-83-39-49-50-51-52(39)3/h5-8,17-18,22,24,27-29,34,38,55,57-58H,9-16H2,1-4H3,(H,43,56)(H,44,60)(H,48,59)(H,61,62)(H,68,69)(H,70,71)(H2,42,45,46)(H2,65,66,67)

> <PUBCHEM_IUPAC_INCHIKEY>
GIAJPCAZJOTOJI-UHFFFAOYSA-N

> <PUBCHEM_XLOGP3_AA>
-5.9

> <PUBCHEM_EXACT_MASS>
1269.20589298

> <PUBCHEM_MOLECULAR_FORMULA>
C41H54N13O24P3S2

> <PUBCHEM_MOLECULAR_WEIGHT>
1270.0

> <PUBCHEM_OPENEYE_CAN_SMILES>
CC(C)(COP(=O)(O)OP(=O)(O)OCC1C(C(C(O1)N2C=NC3=C(N=CN=C32)N)O)OP(=O)(O)O)C(C(=O)NCCC(=O)NCCSC(=O)C(C4=CC=C(C=C4)O)C(=O)NC5(C6N(C5=O)C(=C(CO6)CSC7=NN=NN7C)C(=O)O)OC)O

> <PUBCHEM_OPENEYE_ISO_SMILES>
CC(C)(COP(=O)(O)OP(=O)(O)OCC1C(C(C(O1)N2C=NC3=C(N=CN=C32)N)O)OP(=O)(O)O)C(C(=O)NCCC(=O)NCCSC(=O)C(C4=CC=C(C=C4)O)C(=O)NC5(C6N(C5=O)C(=C(CO6)CSC7=NN=NN7C)C(=O)O)OC)O

> <PUBCHEM_CACTVS_TPSA>
583

> <PUBCHEM_MONOISOTOPIC_WEIGHT>
1269.20589298

> <PUBCHEM_TOTAL_CHARGE>
0

> <PUBCHEM_HEAVY_ATOM_COUNT>
83

> <PUBCHEM_ATOM_DEF_STEREO_COUNT>
0

> <PUBCHEM_ATOM_UDEF_STEREO_COUNT>
8

> <PUBCHEM_BOND_DEF_STEREO_COUNT>
0

> <PUBCHEM_BOND_UDEF_STEREO_COUNT>
0

> <PUBCHEM_ISOTOPIC_ATOM_COUNT>
0

> <PUBCHEM_COMPONENT_COUNT>
1

> <PUBCHEM_CACTVS_TAUTO_COUNT>
-1

> <PUBCHEM_COORDINATE_TYPE>
1
5
255

> <PUBCHEM_BONDANNOTATIONS>
47  10  3
71  24  3
43  31  3
49  32  3
32  57  8
32  60  8
33  60  8
33  61  8
34  57  8
34  68  8
35  64  8
35  68  8
37  40  8
37  69  8
38  41  8
38  69  8
40  41  8
48  53  3
59  54  3
57  61  8
44  6  3
61  64  8
62  66  8
62  67  8
66  74  8
67  75  8
74  78  8
75  78  8
46  9  3

$$$$
155489011
  -OEChem-03012215082D

107110  0     1  0  0  0  0  0999 V2000
   23.7177    1.4772    0.0000 S   0  0  0  0  0  0  0  0  0  0  0  0
    8.3419    0.9098    0.0000 P   0  0  0  0  0  0  0  0  0  0  0  0
   11.1151   -1.7127    0.0000 P   0  0  3  0  0  0  0  0  0  0  0  0
   12.8094   -1.3526    0.0000 P   0  0  3  0  0  0  0  0  0  0  0  0
    7.6609   -2.3516    0.0000 O   0  0  0  0  0  0  0  0  0  0  0  0
    8.7487   -0.0037    0.0000 O   0  0  0  0  0  0  0  0  0  0  0  0
    6.5731   -0.0037    0.0000 O   0  0  0  0  0  0  0  0  0  0  0  0
   10.1641   -1.4037    0.0000 O   0  0  0  0  0  0  0  0  0  0  0  0
   28.7241    1.4772    0.0000 O   0  0  0  0  0  0  0  0  0  0  0  0
   24.2529    3.1245    0.0000 O   0  0  0  0  0  0  0  0  0  0  0  0
    7.9352    1.8234    0.0000 O   0  0  0  0  0  0  0  0  0  0  0  0
    9.2555    1.3166    0.0000 O   0  0  0  0  0  0  0  0  0  0  0  0
   12.0662   -2.0217    0.0000 O   0  0  0  0  0  0  0  0  0  0  0  0
    7.4284    0.5031    0.0000 O   0  0  0  0  0  0  0  0  0  0  0  0
   13.5525   -0.6835    0.0000 O   0  0  0  0  0  0  0  0  0  0  0  0
   10.8061   -2.6638    0.0000 O   0  0  0  0  0  0  0  0  0  0  0  0
   11.4242   -0.7616    0.0000 O   0  0  0  0  0  0  0  0  0  0  0  0
   15.7819    1.3239    0.0000 O   0  0  0  0  0  0  0  0  0  0  0  0
   12.1402   -0.6094    0.0000 O   0  0  0  0  0  0  0  0  0  0  0  0
   13.4785   -2.0957    0.0000 O   0  0  0  0  0  0  0  0  0  0  0  0
   17.1488   -0.9414    0.0000 O   0  0  0  0  0  0  0  0  0  0  0  0
   20.5372   -0.2211    0.0000 O   0  0  0  0  0  0  0  0  0  0  0  0
   26.2209    2.4251    0.0000 N   0  0  0  0  0  0  0  0  0  0  0  0
   27.9810    2.1464    0.0000 N   0  0  3  0  0  0  0  0  0  0  0  0
    5.9008   -2.0728    0.0000 N   0  0  0  0  0  0  0  0  0  0  0  0
    4.6004   -3.0211    0.0000 N   0  0  0  0  0  0  0  0  0  0  0  0
    4.9908   -0.4935    0.0000 N   0  0  0  0  0  0  0  0  0  0  0  0
    3.2686   -0.6775    0.0000 N   0  0  0  0  0  0  0  0  0  0  0  0
   21.0724    1.4261    0.0000 N   0  0  0  0  0  0  0  0  0  0  0  0
    2.5668   -2.2610    0.0000 N   0  0  0  0  0  0  0  0  0  0  0  0
   17.6840    0.7059    0.0000 N   0  0  0  0  0  0  0  0  0  0  0  0
   25.7209    0.8863    0.0000 C   0  0  3  0  0  0  0  0  0  0  0  0
   26.7209    0.8863    0.0000 C   0  0  0  0  0  0  0  0  0  0  0  0
   25.4119    1.8373    0.0000 C   0  0  3  0  0  0  0  0  0  0  0  0
   27.0299    1.8373    0.0000 C   0  0  3  0  0  0  0  0  0  0  0  0
    8.1609   -0.8127    0.0000 C   0  0  3  0  0  0  0  0  0  0  0  0
    7.1609   -0.8127    0.0000 C   0  0  3  0  0  0  0  0  0  0  0  0
    8.4699   -1.7638    0.0000 C   0  0  3  0  0  0  0  0  0  0  0  0
    6.8519   -1.7638    0.0000 C   0  0  3  0  0  0  0  0  0  0  0  0
   25.1331    0.0773    0.0000 C   0  0  0  0  0  0  0  0  0  0  0  0
    9.4210   -2.0728    0.0000 C   0  0  0  0  0  0  0  0  0  0  0  0
   24.4608    2.1464    0.0000 C   0  0  0  0  0  0  0  0  0  0  0  0
    5.0971   -1.4878    0.0000 C   0  0  0  0  0  0  0  0  0  0  0  0
   28.1889    3.1245    0.0000 C   0  0  0  0  0  0  0  0  0  0  0  0
    5.5944   -3.0185    0.0000 C   0  0  0  0  0  0  0  0  0  0  0  0
    4.2891   -2.0770    0.0000 C   0  0  0  0  0  0  0  0  0  0  0  0
   15.2467   -0.3233    0.0000 C   0  0  0  0  0  0  0  0  0  0  0  0
   22.7666    1.7862    0.0000 C   0  0  0  0  0  0  0  0  0  0  0  0
    3.3748   -1.6718    0.0000 C   0  0  0  0  0  0  0  0  0  0  0  0
   15.9898    0.3458    0.0000 C   0  0  3  0  0  0  0  0  0  0  0  0
   14.5036   -0.9925    0.0000 C   0  0  0  0  0  0  0  0  0  0  0  0
   22.0235    1.1171    0.0000 C   0  0  0  0  0  0  0  0  0  0  0  0
   14.5776    0.4198    0.0000 C   0  0  0  0  0  0  0  0  0  0  0  0
   15.9158   -1.0665    0.0000 C   0  0  0  0  0  0  0  0  0  0  0  0
    4.0766   -0.0883    0.0000 C   0  0  0  0  0  0  0  0  0  0  0  0
   16.9409    0.0368    0.0000 C   0  0  0  0  0  0  0  0  0  0  0  0
   18.6351    0.3969    0.0000 C   0  0  0  0  0  0  0  0  0  0  0  0
   19.3782    1.0660    0.0000 C   0  0  0  0  0  0  0  0  0  0  0  0
   20.3293    0.7570    0.0000 C   0  0  0  0  0  0  0  0  0  0  0  0
   25.1086    0.9833    0.0000 H   0  0  0  0  0  0  0  0  0  0  0  0
   26.6561    0.2697    0.0000 H   0  0  0  0  0  0  0  0  0  0  0  0
   27.3274    0.7574    0.0000 H   0  0  0  0  0  0  0  0  0  0  0  0
   25.3149    2.4497    0.0000 H   0  0  0  0  0  0  0  0  0  0  0  0
   27.1269    2.4497    0.0000 H   0  0  0  0  0  0  0  0  0  0  0  0
    7.8794   -0.2603    0.0000 H   0  0  0  0  0  0  0  0  0  0  0  0
    7.4424   -0.2603    0.0000 H   0  0  0  0  0  0  0  0  0  0  0  0
    8.5669   -2.3762    0.0000 H   0  0  0  0  0  0  0  0  0  0  0  0
    6.4134   -1.3254    0.0000 H   0  0  0  0  0  0  0  0  0  0  0  0
   26.2209    3.0451    0.0000 H   0  0  0  0  0  0  0  0  0  0  0  0
   24.6315    0.4417    0.0000 H   0  0  0  0  0  0  0  0  0  0  0  0
   24.7687   -0.4243    0.0000 H   0  0  0  0  0  0  0  0  0  0  0  0
   25.6347   -0.2872    0.0000 H   0  0  0  0  0  0  0  0  0  0  0  0
    9.1299   -2.6202    0.0000 H   0  0  0  0  0  0  0  0  0  0  0  0
    9.9095   -2.4545    0.0000 H   0  0  0  0  0  0  0  0  0  0  0  0
    6.8253    0.5627    0.0000 H   0  0  0  0  0  0  0  0  0  0  0  0
   28.7954    2.9956    0.0000 H   0  0  0  0  0  0  0  0  0  0  0  0
   28.3178    3.7310    0.0000 H   0  0  0  0  0  0  0  0  0  0  0  0
   27.5825    3.2534    0.0000 H   0  0  0  0  0  0  0  0  0  0  0  0
    5.9597   -3.5195    0.0000 H   0  0  0  0  0  0  0  0  0  0  0  0
   29.3138    1.6688    0.0000 H   0  0  0  0  0  0  0  0  0  0  0  0
   23.0577    2.3337    0.0000 H   0  0  0  0  0  0  0  0  0  0  0  0
   22.2781    2.1680    0.0000 H   0  0  0  0  0  0  0  0  0  0  0  0
   15.4002    0.5374    0.0000 H   0  0  0  0  0  0  0  0  0  0  0  0
   14.2125   -1.5399    0.0000 H   0  0  0  0  0  0  0  0  0  0  0  0
   14.9921   -1.3742    0.0000 H   0  0  0  0  0  0  0  0  0  0  0  0
   21.7324    0.5697    0.0000 H   0  0  0  0  0  0  0  0  0  0  0  0
   22.5121    0.7354    0.0000 H   0  0  0  0  0  0  0  0  0  0  0  0
   15.0383    0.8347    0.0000 H   0  0  0  0  0  0  0  0  0  0  0  0
   14.1627    0.8806    0.0000 H   0  0  0  0  0  0  0  0  0  0  0  0
   14.1168    0.0049    0.0000 H   0  0  0  0  0  0  0  0  0  0  0  0
   15.4551   -1.4814    0.0000 H   0  0  0  0  0  0  0  0  0  0  0  0
   16.3307   -1.5272    0.0000 H   0  0  0  0  0  0  0  0  0  0  0  0
   16.3766   -0.6516    0.0000 H   0  0  0  0  0  0  0  0  0  0  0  0
    8.2996    2.3250    0.0000 H   0  0  0  0  0  0  0  0  0  0  0  0
    9.3203    1.9332    0.0000 H   0  0  0  0  0  0  0  0  0  0  0  0
    4.0107    0.5282    0.0000 H   0  0  0  0  0  0  0  0  0  0  0  0
   11.2210   -3.1245    0.0000 H   0  0  0  0  0  0  0  0  0  0  0  0
   20.9435    2.0326    0.0000 H   0  0  0  0  0  0  0  0  0  0  0  0
    2.0000   -2.0098    0.0000 H   0  0  0  0  0  0  0  0  0  0  0  0
    2.6327   -2.8775    0.0000 H   0  0  0  0  0  0  0  0  0  0  0  0
   17.5551    1.3123    0.0000 H   0  0  0  0  0  0  0  0  0  0  0  0
   15.1923    1.5155    0.0000 H   0  0  0  0  0  0  0  0  0  0  0  0
   18.3440   -0.1505    0.0000 H   0  0  0  0  0  0  0  0  0  0  0  0
   19.1237    0.0152    0.0000 H   0  0  0  0  0  0  0  0  0  0  0  0
   19.6693    1.6134    0.0000 H   0  0  0  0  0  0  0  0  0  0  0  0
   18.8897    1.4477    0.0000 H   0  0  0  0  0  0  0  0  0  0  0  0
   12.3318   -0.0198    0.0000 H   0  0  0  0  0  0  0  0  0  0  0  0
  1 42  1  0  0  0  0
  1 48  1  0  0  0  0
  2  6  1  0  0  0  0
  2 11  1  0  0  0  0
  2 12  1  0  0  0  0
  2 14  2  0  0  0  0
  3  8  1  0  0  0  0
  3 13  1  0  0  0  0
  3 16  1  0  0  0  0
  3 17  2  0  0  0  0
  4 13  1  0  0  0  0
  4 15  1  0  0  0  0
  4 19  1  0  0  0  0
  4 20  2  0  0  0  0
  5 38  1  0  0  0  0
  5 39  1  0  0  0  0
  6 36  1  0  0  0  0
  7 37  1  0  0  0  0
  7 75  1  0  0  0  0
  8 41  1  0  0  0  0
  9 24  1  0  0  0  0
  9 80  1  0  0  0  0
 10 42  2  0  0  0  0
 11 94  1  0  0  0  0
 12 95  1  0  0  0  0
 15 51  1  0  0  0  0
 16 97  1  0  0  0  0
 18 50  1  0  0  0  0
 18102  1  0  0  0  0
 19107  1  0  0  0  0
 21 56  2  0  0  0  0
 22 59  2  0  0  0  0
 23 34  1  0  0  0  0
 23 35  1  0  0  0  0
 23 69  1  0  0  0  0
 24 35  1  0  0  0  0
 24 44  1  0  0  0  0
 25 39  1  0  0  0  0
 25 43  1  0  0  0  0
 25 45  1  0  0  0  0
 26 45  2  0  0  0  0
 26 46  1  0  0  0  0
 27 43  2  0  0  0  0
 27 55  1  0  0  0  0
 28 49  1  0  0  0  0
 28 55  2  0  0  0  0
 29 52  1  0  0  0  0
 29 59  1  0  0  0  0
 29 98  1  0  0  0  0
 30 49  1  0  0  0  0
 30 99  1  0  0  0  0
 30100  1  0  0  0  0
 31 56  1  0  0  0  0
 31 57  1  0  0  0  0
 31101  1  0  0  0  0
 32 33  1  0  0  0  0
 32 34  1  0  0  0  0
 32 40  1  0  0  0  0
 32 60  1  0  0  0  0
 33 35  1  0  0  0  0
 33 61  1  0  0  0  0
 33 62  1  0  0  0  0
 34 42  1  0  0  0  0
 34 63  1  0  0  0  0
 35 64  1  0  0  0  0
 36 37  1  0  0  0  0
 36 38  1  0  0  0  0
 36 65  1  0  0  0  0
 37 39  1  0  0  0  0
 37 66  1  0  0  0  0
 38 41  1  0  0  0  0
 38 67  1  0  0  0  0
 39 68  1  0  0  0  0
 40 70  1  0  0  0  0
 40 71  1  0  0  0  0
 40 72  1  0  0  0  0
 41 73  1  0  0  0  0
 41 74  1  0  0  0  0
 43 46  1  0  0  0  0
 44 76  1  0  0  0  0
 44 77  1  0  0  0  0
 44 78  1  0  0  0  0
 45 79  1  0  0  0  0
 46 49  2  0  0  0  0
 47 50  1  0  0  0  0
 47 51  1  0  0  0  0
 47 53  1  0  0  0  0
 47 54  1  0  0  0  0
 48 52  1  0  0  0  0
 48 81  1  0  0  0  0
 48 82  1  0  0  0  0
 50 56  1  0  0  0  0
 50 83  1  0  0  0  0
 51 84  1  0  0  0  0
 51 85  1  0  0  0  0
 52 86  1  0  0  0  0
 52 87  1  0  0  0  0
 53 88  1  0  0  0  0
 53 89  1  0  0  0  0
 53 90  1  0  0  0  0
 54 91  1  0  0  0  0
 54 92  1  0  0  0  0
 54 93  1  0  0  0  0
 55 96  1  0  0  0  0
 57 58  1  0  0  0  0
 57103  1  0  0  0  0
 57104  1  0  0  0  0
 58 59  1  0  0  0  0
 58105  1  0  0  0  0
 58106  1  0  0  0  0
M  END
> <PUBCHEM_COMPOUND_CID>
155489011

> <PUBCHEM_COMPOUND_CANONICALIZED>
1

> <PUBCHEM_CACTVS_COMPLEXITY>
1620

> <PUBCHEM_CACTVS_HBOND_ACCEPTOR>
25

> <PUBCHEM_CACTVS_HBOND_DONOR>
11

> <PUBCHEM_CACTVS_ROTATABLE_BOND>
22

> <PUBCHEM_CACTVS_SUBSKEYS>
AAADcfB7/gNAAAAAAAAAAAAAAAAAAWLEgAAsAAAAAAAAAFgB+AAAHgQUCCAADzzl1waH8L/cFxioQQdxdIKAgC0RELAhUKHoVBCDWBpgyGAeRAgPFgLzACD6MQILAAAAAAAAAAAAAAAAAAAAAAAAAAAAAA==

> <PUBCHEM_IUPAC_OPENEYE_NAME>
S-[2-[3-[[4-[[[5-(6-aminopurin-9-yl)-4-hydroxy-3-phosphonooxy-tetrahydrofuran-2-yl]methoxy-hydroxy-phosphoryl]oxy-hydroxy-phosphoryl]oxy-2-hydroxy-3,3-dimethyl-butanoyl]amino]propanoylamino]ethyl] 5-[hydroxy(methyl)amino]-3-methyl-pyrrolidine-2-carbothioate

> <PUBCHEM_IUPAC_CAS_NAME>
5-[hydroxy(methyl)amino]-3-methyl-2-pyrrolidinecarbothioic acid S-[2-[[3-[[4-[[[5-(6-aminopurin-9-yl)-4-hydroxy-3-phosphonooxy-2-oxolanyl]methoxy-hydroxyphosphoryl]oxy-hydroxyphosphoryl]oxy-2-hydroxy-3,3-dimethyl-1-oxobutyl]amino]-1-oxopropyl]amino]ethyl] ester

> <PUBCHEM_IUPAC_NAME_MARKUP>
<I>S</I>-[2-[3-[[4-[[[5-(6-aminopurin-9-yl)-4-hydroxy-3-phosphonooxyoxolan-2-yl]methoxy-hydroxyphosphoryl]oxy-hydroxyphosphoryl]oxy-2-hydroxy-3,3-dimethylbutanoyl]amino]propanoylamino]ethyl] 5-[hydroxy(methyl)amino]-3-methylpyrrolidine-2-carbothioate

> <PUBCHEM_IUPAC_NAME>
S-[2-[3-[[4-[[[5-(6-aminopurin-9-yl)-4-hydroxy-3-phosphonooxyoxolan-2-yl]methoxy-hydroxyphosphoryl]oxy-hydroxyphosphoryl]oxy-2-hydroxy-3,3-dimethylbutanoyl]amino]propanoylamino]ethyl] 5-[hydroxy(methyl)amino]-3-methylpyrrolidine-2-carbothioate

> <PUBCHEM_IUPAC_SYSTEMATIC_NAME>
S-[2-[3-[[4-[[[5-(6-aminopurin-9-yl)-4-oxidanyl-3-phosphonooxy-oxolan-2-yl]methoxy-oxidanyl-phosphoryl]oxy-oxidanyl-phosphoryl]oxy-3,3-dimethyl-2-oxidanyl-butanoyl]amino]propanoylamino]ethyl] 3-methyl-5-[methyl(oxidanyl)amino]pyrrolidine-2-carbothioate

> <PUBCHEM_IUPAC_TRADITIONAL_NAME>
5-[hydroxy(methyl)amino]-3-methyl-pyrrolidine-2-carbothioic acid S-[2-[3-[[4-[[(5-adenin-9-yl-4-hydroxy-3-phosphonooxy-tetrahydrofuran-2-yl)methoxy-hydroxy-phosphoryl]oxy-hydroxy-phosphoryl]oxy-2-hydroxy-3,3-dimethyl-butanoyl]amino]propanoylamino]ethyl] ester

> <PUBCHEM_IUPAC_INCHI>
InChI=1S/C28H48N9O18P3S/c1-14-9-16(36(4)43)35-18(14)27(42)59-8-7-30-17(38)5-6-31-25(41)22(40)28(2,3)11-52-58(49,50)55-57(47,48)51-10-15-21(54-56(44,45)46)20(39)26(53-15)37-13-34-19-23(29)32-12-33-24(19)37/h12-16,18,20-22,26,35,39-40,43H,5-11H2,1-4H3,(H,30,38)(H,31,41)(H,47,48)(H,49,50)(H2,29,32,33)(H2,44,45,46)

> <PUBCHEM_IUPAC_INCHIKEY>
IECCDHYGXIHEMF-UHFFFAOYSA-N

> <PUBCHEM_XLOGP3_AA>
-9.9

> <PUBCHEM_EXACT_MASS>
923.20508788

> <PUBCHEM_MOLECULAR_FORMULA>
C28H48N9O18P3S

> <PUBCHEM_MOLECULAR_WEIGHT>
923.7

> <PUBCHEM_OPENEYE_CAN_SMILES>
CC1CC(NC1C(=O)SCCNC(=O)CCNC(=O)C(C(C)(C)COP(=O)(O)OP(=O)(O)OCC2C(C(C(O2)N3C=NC4=C(N=CN=C43)N)O)OP(=O)(O)O)O)N(C)O

> <PUBCHEM_OPENEYE_ISO_SMILES>
CC1CC(NC1C(=O)SCCNC(=O)CCNC(=O)C(C(C)(C)COP(=O)(O)OP(=O)(O)OCC2C(C(C(O2)N3C=NC4=C(N=CN=C43)N)O)OP(=O)(O)O)O)N(C)O

> <PUBCHEM_CACTVS_TPSA>
424

> <PUBCHEM_MONOISOTOPIC_WEIGHT>
923.20508788

> <PUBCHEM_TOTAL_CHARGE>
0

> <PUBCHEM_HEAVY_ATOM_COUNT>
59

> <PUBCHEM_ATOM_DEF_STEREO_COUNT>
0

> <PUBCHEM_ATOM_UDEF_STEREO_COUNT>
8

> <PUBCHEM_BOND_DEF_STEREO_COUNT>
0

> <PUBCHEM_BOND_UDEF_STEREO_COUNT>
0

> <PUBCHEM_ISOTOPIC_ATOM_COUNT>
0

> <PUBCHEM_COMPONENT_COUNT>
1

> <PUBCHEM_CACTVS_TAUTO_COUNT>
-1

> <PUBCHEM_COORDINATE_TYPE>
1
5
255

> <PUBCHEM_BONDANNOTATIONS>
50  18  3
35  24  3
39  25  3
25  43  8
25  45  8
26  45  8
26  46  8
27  43  8
27  55  8
28  49  8
28  55  8
32  40  3
34  42  3
38  41  3
43  46  8
46  49  8
36  6  3
37  7  3

$$$$
